function mpc = case2869pegase_OPF1
%CASE2869PEGASE_OPF1

%% MATPOWER Case Format : Version 2
mpc.version = '2';

%%-----  Power Flow Data  -----%%
%% system MVA base
mpc.baseMVA = 100;

%% bus data
%	bus_i	type	Pd	Qd	Gs	Bs	area	Vm	Va	baseKV	zone	Vmax	Vmin
mpc.bus = [
	3	1	151	48.8	0	4.69	0	1	0	220	5	1.1	0.8;
	4	1	171.41	23.4	0	2.1	0	1	0	220	5	1.1	0.8;
	10	1	134	24.7	0	12.44	0	1	0	220	5	1.1	0.8;
	15	1	59.67	26.7	0	12.84	0	1	0	220	4	1.1	0.8;
	21	1	161.2	39.3	0	30.71	0	1	0	220	5	1.1	0.8;
	22	1	0	0	0	0.85	0	1	0	220	5	1.1	0.8;
	26	1	167.3	54.8	0	110.54	0	1	0	380	5	1.1	0.8;
	29	1	152.9	49.4	0	27.65	0	1	0	380	5	1.1	0.8;
	32	2	0	0	0	0	0	1	0	220	4	1.1	0.8;
	33	2	0	0	0	0	0	1	0	220	4	1.1	0.8;
	38	1	42.75	12.8	0	13.3	0	1	0	220	8	1.1	0.8;
	39	2	0	0	0	0	0	1	0	150	10	1.1	0.8;
	42	1	20.82	7.9	0	26.89	0	1	0	380	4	1.1	0.8;
	44	1	0	0	0	7.27	0	1	0	220	5	1.1	0.8;
	51	2	0	0	0	0	0	1	0	220	4	1.1	0.8;
	52	1	127.6	31.8	0	20.51	0	1	0	150	8	1.1	0.8;
	53	1	48.65	16.1	0	7.14	0	1	0	220	5	1.1	0.8;
	58	1	0	0	0	2.31	0	1	0	380	5	1.1	0.8;
	59	1	119.2	20.7	0	3.31	0	1	0	220	5	1.1	0.8;
	69	1	62.87	20.5	0	1.15	0	1	0	150	8	1.1	0.8;
	71	1	126.3	42.4	0	55.24	0	1	0	150	8	1.1	0.8;
	72	1	6.91	-4.6	0	5.75	0	1	0	220	4	1.1	0.8;
	75	1	38.74	6.1	0	1.17	0	1	0	220	4	1.1	0.8;
	76	1	22.13	10.7	0	14.21	0	1	0	220	8	1.1	0.8;
	77	1	0	0	0	0.73	0	1	0	220	4	1.1	0.8;
	89	1	0	0	0	4.53	0	1	0	380	2	1.1	0.8;
	90	1	363.25	115.39	0	3.95	0	1	0	220	5	1.1	0.8;
	91	1	0	0	0	0.02	0	1	0	150	8	1.1	0.8;
	96	1	-8.4	28.66	0	3.49	0	1	0	220	5	1.1	0.8;
	113	1	0	0	0	6.53	0	1	0	380	5	1.1	0.8;
	115	1	0	0	0	4.21	0	1	0	220	5	1.1	0.8;
	118	1	704.53	-35.33	0	13.1	0	1	0	380	5	1.1	0.8;
	124	2	0	0	0	0	0	1	0	220	5	1.1	0.8;
	128	1	23.73	12.7	0	0.52	0	1	0	220	5	1.1	0.8;
	130	1	0	0	0	47.75	0	1	0	380	10	1.1	0.8;
	132	1	0	0	0	21.39	0	1	0	380	1	1.1	0.8;
	133	1	38.14	12.5	0	6.28	0	1	0	150	8	1.1	0.8;
	138	1	-75.38	7.8	0	29.9	0	1	0	380	10	1.1	0.8;
	139	1	-764.34	66.91	0	33.47	0	1	0	380	8	1.1	0.8;
	140	1	0	0	0	4.14	0	1	0	220	8	1.1	0.8;
	143	1	0	0	0	0	0	1	0	150	8	1.1	0.8;
	145	1	38.34	5.6	0	7.64	0	1	0	220	5	1.1	0.8;
	148	1	32.34	12	0	6.1	0	1	0	220	5	1.1	0.8;
	150	2	0	0	0	0	0	1	0	220	5	1.1	0.8;
	163	1	147.76	32.73	0	8.34	0	1	0	220	5	1.1	0.8;
	164	1	0	0	0	5.17	0	1	0	150	8	1.1	0.8;
	171	1	100.8	13.2	0	5.24	0	1	0	220	5	1.1	0.8;
	172	1	111.7	10.96	0	4.22	0	1	0	220	4	1.1	0.8;
	174	1	370.5	-17	0	9.91	0	1	0	220	5	1.1	0.8;
	177	1	94.9	36.2	0	16.46	0	1	0	220	10	1.1	0.8;
	179	2	0	0	0	0	0	1	0	380	4	1.1	0.8;
	184	1	0	0	0	2.42	0	1	0	220	5	1.1	0.8;
	188	1	36.84	13.9	0	3.3	0	1	0	220	5	1.1	0.8;
	194	2	0	0	0	0	0	1	0	150	8	1.1	0.8;
	195	1	73.14	21.55	0	8.52	0	1	0	220	5	1.1	0.8;
	196	1	0	0	0	12.48	0	1	0	220	5	1.1	0.8;
	198	1	39.74	11.8	0	1.44	0	1	0	220	5	1.1	0.8;
	199	1	86.8	28.4	0	1.34	0	1	0	150	8	1.1	0.8;
	201	2	0	0	0	0	0	1	0	220	4	1.1	0.8;
	205	1	46.15	18.2	0	1.29	0	1	0	150	8	1.1	0.8;
	207	1	321.98	84.4	0	1.34	0	1	0	220	5	1.1	0.8;
	211	1	75.28	19.2	0	1.9	0	1	0	110	8	1.1	0.8;
	216	1	155.6	54.7	0	2.21	0	1	0	220	5	1.1	0.8;
	217	1	105.2	0.1	0	7.36	0	1	0	220	5	1.1	0.8;
	218	1	69.83	15.12	0	2.23	0	1	0	220	5	1.1	0.8;
	221	2	0	0	0	0	0	1	0	380	5	1.1	0.8;
	225	1	0	0	0	1.15	0	1	0	220	5	1.1	0.8;
	228	1	-23.43	57.4	0	0	0	1	0	150	2	1.1	0.8;
	230	1	152.07	22.52	0	7.87	0	1	0	220	4	1.1	0.8;
	231	1	-0.13	-1	0	0	0	1	0	110	8	1.1	0.8;
	236	1	45.85	7	0	1.05	0	1	0	220	4	1.1	0.8;
	243	1	0	-0.01	0	13.49	0	1	0	150	8	1.1	0.8;
	244	1	0	0	0	0.68	0	1	0	150	8	1.1	0.8;
	249	1	0	0	0	26.3	0	1	0	220	4	1.1	0.8;
	257	1	113.9	24.5	0	6.72	0	1	0	220	4	1.1	0.8;
	261	1	0	0	0	1.29	0	1	0	380	10	1.1	0.8;
	264	1	38.74	9	0	0.57	0	1	0	220	4	1.1	0.8;
	266	1	0	0	0	140.96	0	1	0	380	4	1.1	0.8;
	267	1	103.8	2.7	0	3.33	0	1	0	220	4	1.1	0.8;
	268	1	-0.13	-1	0	0	0	1	0	220	8	1.1	0.8;
	271	1	96.7	26.8	0	0	0	1	0	150	2	1.1	0.8;
	275	1	102.1	25.3	0	1.11	0	1	0	150	8	1.1	0.8;
	280	1	119.6	29.6	0	5.34	0	1	0	220	5	1.1	0.8;
	281	1	0	0	0	18.07	0	1	0	380	8	1.1	0.8;
	283	1	27.33	11.9	0	1.17	0	1	0	220	5	1.1	0.8;
	284	1	191.2	-3.4	0	19.21	0	1	0	220	4	1.1	0.8;
	292	1	13.82	1.4	0	0.7	0	1	0	220	5	1.1	0.8;
	297	1	23.73	9.4	0	1.45	0	1	0	150	8	1.1	0.8;
	299	2	0	0	0	0	0	1	0	380	4	1.1	0.8;
	304	1	2.2	0.5	0	0.21	0	1	0	150	10	1.1	0.8;
	305	1	103	12	0	0.63	0	1	0	220	5	1.1	0.8;
	306	1	0	0	0	4.76	0	1	0	220	5	1.1	0.8;
	311	1	42.05	17.2	0	1.31	0	1	0	150	8	1.1	0.8;
	312	1	-0.16	-2.91	0	0.43	0	1	0	110	8	1.1	0.8;
	314	1	163.1	46.3	0	10.6	0	1	0	220	5	1.1	0.8;
	315	1	0	0	0	2.13	0	1	0	220	10	1.1	0.8;
	317	1	0	0	0	-1.82	0	1	0	380	2	1.1	0.8;
	322	1	303.8	85.4	0	3.63	0	1	0	220	10	1.1	0.8;
	326	1	0	0	0	0	0	1	0	220	8	1.1	0.8;
	333	1	524.5	43	0	6.85	0	1	0	220	5	1.1	0.8;
	338	2	0	0	0	0	0	1	0	220	5	1.1	0.8;
	344	1	372.8	147.5	0	27.73	0	1	0	150	8	1.1	0.8;
	346	1	197.5	48.3	0	0.71	0	1	0	220	5	1.1	0.8;
	349	1	0	0	0	15.15	0	1	0	150	8	1.1	0.8;
	350	1	110.4	26.2	0	5.62	0	1	0	220	5	1.1	0.8;
	351	1	-0.15	-1.93	0	0	0	1	0	220	8	1.1	0.8;
	352	2	0	0	0	0	0	1	0	380	5	1.1	0.8;
	360	1	35.54	11.5	0	3.65	0	1	0	110	8	1.1	0.8;
	367	1	65.17	-51.5	0	4.85	0	1	0	220	5	1.1	0.8;
	369	1	0	0	0	3.78	0	1	0	220	8	1.1	0.8;
	370	1	56.76	23.2	0	0.49	0	1	0	150	8	1.1	0.8;
	377	1	-0.18	-1	0	0	0	1	0	150	8	1.1	0.8;
	380	1	-95.71	-2.8	0	7.25	0	1	0	220	10	1.1	0.8;
	385	1	0	0	0	105.84	0	1	0	380	4	1.1	0.8;
	387	1	-0.19	-4.38	0	0	0	1	0	150	8	1.1	0.8;
	389	2	0	0	0	0	0	1	0	150	10	1.1	0.8;
	392	1	134.1	34.2	0	0.75	0	1	0	150	8	1.1	0.8;
	395	1	0	0	0	7.85	0	1	0	380	8	1.1	0.8;
	401	1	56.5	36.29	0	3.08	0	1	0	220	5	1.1	0.8;
	408	1	129.1	7.4	0	0.04	0	1	0	220	5	1.1	0.8;
	410	1	170.89	50.38	0	6.44	0	1	0	220	5	1.1	0.8;
	413	2	0	0	0	0	0	1	0	220	5	1.1	0.8;
	415	1	4.71	0.7	0	11.39	0	1	0	220	4	1.1	0.8;
	416	1	70.68	13.5	0	6.96	0	1	0	220	5	1.1	0.8;
	420	1	0	0	0	0	0	1	0	380	8	1.1	0.8;
	425	1	0	0	0	2.72	0	1	0	380	1	1.1	0.8;
	426	1	123.1	6.5	0	3.25	0	1	0	220	5	1.1	0.8;
	427	1	0	0	0	1.24	0	1	0	380	1	1.1	0.8;
	429	1	26.93	-22.4	0	4.95	0	1	0	220	4	1.1	0.8;
	432	1	0	0	0	68.52	0	1	0	380	5	1.1	0.8;
	440	2	0	0	0	0	0	1	0	220	4	1.1	0.8;
	441	1	0	0	0	27.89	0	1	0	380	10	1.1	0.8;
	442	2	0	0	0	0	0	1	0	220	4	1.1	0.8;
	444	1	0	0	0	2.45	0	1	0	220	5	1.1	0.8;
	445	1	36.74	10.3	0	8.1	0	1	0	220	4	1.1	0.8;
	449	1	0	0	0	29.42	0	1	0	380	5	1.1	0.8;
	453	2	0	0	0	0	0	1	0	380	5	1.1	0.8;
	455	1	274.32	5.66	0	13.24	0	1	0	220	5	1.1	0.8;
	472	1	336.2	131.6	0	64.01	0	1	0	150	8	1.1	0.8;
	473	1	-22.95	-3.72	0	14.34	0	1	0	220	4	1.1	0.8;
	477	1	0	0	0	70.37	0	1	0	380	4	1.1	0.8;
	481	1	0	0	0	17.44	0	1	0	220	4	1.1	0.8;
	483	1	57.26	15.6	0	3.43	0	1	0	220	4	1.1	0.8;
	486	1	7.01	2	0	0.44	0	1	0	150	8	1.1	0.8;
	489	2	0	0	0	0	0	1	0	220	4	1.1	0.8;
	490	1	20.52	4	0	2.77	0	1	0	220	5	1.1	0.8;
	496	1	0	0	0	10.04	0	1	0	150	8	1.1	0.8;
	500	1	144.4	35.5	0	7.66	0	1	0	220	5	1.1	0.8;
	502	1	0	0	0	1.96	0	1	0	220	5	1.1	0.8;
	506	1	0	0	0	0.4	0	1	0	380	5	1.1	0.8;
	509	1	77.29	7	0	17.6	0	1	0	220	4	1.1	0.8;
	513	1	57.46	17.1	0	1.61	0	1	0	220	5	1.1	0.8;
	516	2	0	0	0	0	0	1	0	220	5	1.1	0.8;
	519	1	207.2	9.4	0	8.77	0	1	0	220	4	1.1	0.8;
	520	1	118.5	20.4	0	2.57	0	1	0	220	5	1.1	0.8;
	523	1	189.9	74.7	0	26.2	0	1	0	150	8	1.1	0.8;
	527	1	277.7	45.4	0	0.7	0	1	0	220	4	1.1	0.8;
	536	1	87.8	-1.4	0	36.05	0	1	0	380	10	1.1	0.8;
	539	1	57.96	18.9	0	14.91	0	1	0	150	8	1.1	0.8;
	544	1	79.69	39.6	0	18.83	0	1	0	380	10	1.1	0.8;
	548	1	30.93	8.9	0	0.45	0	1	0	110	8	1.1	0.8;
	549	1	0	0	0	5.15	0	1	0	220	5	1.1	0.8;
	550	1	0	0	0	10	0	1	0	220	4	1.1	0.8;
	552	1	180.8	90.8	0	2.42	0	1	0	150	10	1.1	0.8;
	554	1	0	0	0	1.97	0	1	0	220	5	1.1	0.8;
	556	1	16.52	9	0	1.17	0	1	0	220	5	1.1	0.8;
	558	1	-0.18	-3.57	0	0	0	1	0	150	8	1.1	0.8;
	559	1	42.25	16.6	0	0	0	1	0	150	8	1.1	0.8;
	561	1	0	0	0	0.32	0	1	0	220	5	1.1	0.8;
	564	2	0	0	0	0	0	1	0	220	5	1.1	0.8;
	575	1	0	0	0	0.67	0	1	0	220	5	1.1	0.8;
	577	1	-0.13	-1	0	0	0	1	0	220	8	1.1	0.8;
	579	1	17.32	6.6	0	16.52	0	1	0	380	4	1.1	0.8;
	583	2	0	0	0	0	0	1	0	220	5	1.1	0.8;
	585	1	21.12	8.3	0	4.26	0	1	0	150	8	1.1	0.8;
	593	1	0	0	0	29.2	0	1	0	380	8	1.1	0.8;
	594	1	67.57	17	0	5.75	0	1	0	220	5	1.1	0.8;
	595	1	47.55	5.3	0	7.59	0	1	0	220	4	1.1	0.8;
	597	1	33.34	15.7	0	64.15	0	1	0	380	4	1.1	0.8;
	601	1	140.6	42.6	0	5.71	0	1	0	220	5	1.1	0.8;
	602	1	110.8	-8.8	0	3.15	0	1	0	220	4	1.1	0.8;
	604	1	33.24	4.4	0	24.54	0	1	0	380	5	1.1	0.8;
	608	1	150.9	10.4	0	4.77	0	1	0	220	5	1.1	0.8;
	609	1	0	0	0	5.67	0	1	0	220	5	1.1	0.8;
	610	1	0	0	0	0.91	0	1	0	150	10	1.1	0.8;
	615	2	0	0	0	0	0	1	0	220	5	1.1	0.8;
	616	2	0	0	0	0	0	1	0	220	5	1.1	0.8;
	618	2	0	0	0	0	0	1	0	380	4	1.1	0.8;
	619	1	72.88	14.4	0	2.96	0	1	0	220	5	1.1	0.8;
	621	1	21.42	8.1	0	7.38	0	1	0	220	4	1.1	0.8;
	628	2	0	0	0	0	0	1	0	220	10	1.1	0.8;
	639	2	0	0	0	0	0	1	0	220	5	1.1	0.8;
	641	1	45.32	18.5	0	0.74	0	1	0	220	5	1.1	0.8;
	642	2	0	0	0	0	0	1	0	380	4	1.1	0.8;
	643	1	15.52	6.3	0	0.6	0	1	0	150	8	1.1	0.8;
	649	1	40.94	19.2	0	5.2	0	1	0	220	4	1.1	0.8;
	650	1	17.22	4.4	0	1.71	0	1	0	110	8	1.1	0.8;
	656	1	-0.15	-1.93	0	0	0	1	0	220	8	1.1	0.8;
	658	1	258.4	66.7	0	5.87	0	1	0	220	5	1.1	0.8;
	659	1	0	0	0	73.98	0	1	0	380	2	1.1	0.8;
	661	1	0	0	0	0.6	0	1	0	380	5	1.1	0.8;
	662	1	0	0	0	4.14	0	1	0	380	8	1.1	0.8;
	666	1	-5.61	-2.79	0	150.93	0	1	0	380	5	1.1	0.8;
	676	1	109.3	35.4	0	1.91	0	1	0	150	8	1.1	0.8;
	678	1	232.1	89.8	0	0.09	0	1	0	220	5	1.1	0.8;
	682	2	0	0	0	0	0	1	0	220	5	1.1	0.8;
	686	2	0	0	0	0	0	1	0	220	4	1.1	0.8;
	687	1	0	0	0	5.6	0	1	0	220	5	1.1	0.8;
	693	1	0	0	0	93.75	0	1	0	380	4	1.1	0.8;
	695	1	96.41	26.5	0	0.08	0	1	0	220	4	1.1	0.8;
	698	2	0	0	0	0	0	1	0	220	10	1.1	0.8;
	699	1	36.54	8.4	0	6.58	0	1	0	220	4	1.1	0.8;
	702	1	0	0	0	0.48	0	1	0	150	10	1.1	0.8;
	706	1	114.8	22.8	0	5.66	0	1	0	220	4	1.1	0.8;
	707	1	83.99	21.2	0	5.36	0	1	0	220	5	1.1	0.8;
	709	2	0	0	0	0	0	1	0	380	4	1.1	0.8;
	710	1	76.38	5.1	0	3.97	0	1	0	220	4	1.1	0.8;
	712	1	110.4	41.9	0	1.88	0	1	0	150	8	1.1	0.8;
	718	1	135.11	41	0	5.31	0	1	0	220	5	1.1	0.8;
	720	1	0	0	0	23.55	0	1	0	380	5	1.1	0.8;
	722	1	0	0	0	0.78	0	1	0	150	8	1.1	0.8;
	726	1	400.3	189.9	0	0.53	0	1	0	220	5	1.1	0.8;
	731	1	0	0	0	61.48	0	1	0	380	4	1.1	0.8;
	733	1	58.36	10.7	0	8.41	0	1	0	110	8	1.1	0.8;
	739	2	0	0	0	0	0	1	0	380	4	1.1	0.8;
	742	1	0	0	0	2.83	0	1	0	220	5	1.1	0.8;
	747	1	69.58	16	0	3.03	0	1	0	220	5	1.1	0.8;
	749	2	0	0	0	0	0	1	0	220	5	1.1	0.8;
	750	1	0	0	0	18.63	0	1	0	220	5	1.1	0.8;
	751	2	0	0	0	0	0	1	0	220	4	1.1	0.8;
	754	1	132.1	32.4	0	58.29	0	1	0	380	4	1.1	0.8;
	757	2	0	0	0	0	0	1	0	380	5	1.1	0.8;
	766	1	0	0	0	7.85	0	1	0	220	5	1.1	0.8;
	769	1	152.57	40	0	6.12	0	1	0	220	5	1.1	0.8;
	772	1	343.9	141.9	0	5.55	0	1	0	220	5	1.1	0.8;
	775	1	-55.14	-27.14	0	0	0	1	0	150	8	1.1	0.8;
	776	2	0	0	0	0	0	1	0	220	5	1.1	0.8;
	778	2	0	0	0	0	0	1	0	220	5	1.1	0.8;
	780	2	0	0	0	0	0	1	0	220	10	1.1	0.8;
	784	1	-26	-14.72	0	0	0	1	0	150	8	1.1	0.8;
	785	1	0	0	0	4.03	0	1	0	220	10	1.1	0.8;
	789	1	0	0	0	6.63	0	1	0	220	5	1.1	0.8;
	790	1	-0.15	-1	0	0.42	0	1	0	110	8	1.1	0.8;
	792	1	295.3	41.9	0	0	0	1	0	150	2	1.1	0.8;
	795	2	0	0	0	0	0	1	0	220	5	1.1	0.8;
	797	1	2	114.6	0	16.15	0	1	0	220	4	1.1	0.8;
	800	1	50.56	18	0	0.11	0	1	0	220	5	1.1	0.8;
	803	2	0	0	0	0	0	1	0	220	5	1.1	0.8;
	804	1	0	0	0	7.26	0	1	0	220	5	1.1	0.8;
	805	1	124.5	29.6	0	15.4	0	1	0	220	5	1.1	0.8;
	806	1	0	0	0	32.02	0	1	0	380	8	1.1	0.8;
	807	2	0	0	0	0	0	1	0	380	4	1.1	0.8;
	808	1	24.53	8.6	0	7.01	0	1	0	220	4	1.1	0.8;
	809	1	0	0	0	58.09	0	1	0	380	5	1.1	0.8;
	814	1	287.7	16.3	0	12.86	0	1	0	380	4	1.1	0.8;
	819	1	0	0	0	0.22	0	1	0	220	5	1.1	0.8;
	823	2	0	0	0	0	0	1	0	380	5	1.1	0.8;
	838	1	615.81	286.69	0	101.04	0	1	0	150	8	1.1	0.8;
	839	1	0	0	0	8.18	0	1	0	380	5	1.1	0.8;
	849	2	0	0	0	0	0	1	0	380	4	1.1	0.8;
	851	2	0	0	0	0	0	1	0	220	5	1.1	0.8;
	854	1	49.96	7.5	0	8.86	0	1	0	220	4	1.1	0.8;
	858	2	0	0	0	0	0	1	0	380	5	1.1	0.8;
	869	1	94.2	5.5	0	6.51	0	1	0	220	4	1.1	0.8;
	870	1	110	3.4	0	11.95	0	1	0	220	5	1.1	0.8;
	871	1	108.89	-21.76	0	3.72	0	1	0	220	5	1.1	0.8;
	878	1	0	0	0	25.28	0	1	0	150	8	1.1	0.8;
	883	1	192.5	78.3	0	6.65	0	1	0	220	5	1.1	0.8;
	891	2	0	0	0	0	0	1	0	380	5	1.1	0.8;
	892	1	0	0	0	9.1	0	1	0	220	5	1.1	0.8;
	898	1	25.63	7.9	0	0.77	0	1	0	110	8	1.1	0.8;
	900	1	0	0	0	0.15	0	1	0	220	5	1.1	0.8;
	903	1	82.69	20.1	0	1.36	0	1	0	220	5	1.1	0.8;
	905	1	631.71	-54.16	0	7.53	0	1	0	380	5	1.1	0.8;
	907	1	0	0	0	0.05	0	1	0	220	5	1.1	0.8;
	908	1	125.9	-0.5	0	0.21	0	1	0	220	5	1.1	0.8;
	913	2	0	0	0	0	0	1	0	380	2	1.1	0.8;
	916	2	0	0	0	0	0	1	0	220	4	1.1	0.8;
	919	1	0	0	0	13.89	0	1	0	380	8	1.1	0.8;
	920	1	34.44	8.5	0	1.11	0	1	0	220	5	1.1	0.8;
	923	1	62.07	14.7	0	4.84	0	1	0	220	5	1.1	0.8;
	928	1	112.9	19.3	0	17.34	0	1	0	150	8	1.1	0.8;
	929	1	43.75	12.4	0	9.35	0	1	0	220	4	1.1	0.8;
	930	2	0	0	0	0	0	1	0	380	4	1.1	0.8;
	932	1	77.59	12.3	0	5.1	0	1	0	220	4	1.1	0.8;
	933	1	0	0	0	22.75	0	1	0	220	5	1.1	0.8;
	935	1	0	0	0	9.46	0	1	0	220	5	1.1	0.8;
	947	1	90.7	5.8	0	4.1	0	1	0	220	4	1.1	0.8;
	948	1	15.82	4	0	0.7	0	1	0	150	10	1.1	0.8;
	950	1	69.08	22.6	0	0.54	0	1	0	150	8	1.1	0.8;
	953	1	108.7	-12.15	0	37.11	0	1	0	380	5	1.1	0.8;
	954	1	66.27	13.6	0	0.67	0	1	0	220	5	1.1	0.8;
	955	1	244.2	152.7	0	0	0	1	0	150	2	1.1	0.8;
	957	1	65.77	16.1	0	1.66	0	1	0	220	4	1.1	0.8;
	960	1	0	0	0	108.73	0	1	0	380	5	1.1	0.8;
	962	1	42.55	17.1	0	1.67	0	1	0	220	4	1.1	0.8;
	964	1	88.5	16.5	0	146.44	0	1	0	380	5	1.1	0.8;
	970	1	62.27	-2.1	0	8.01	0	1	0	220	4	1.1	0.8;
	972	2	0	0	0	0	0	1	0	380	5	1.1	0.8;
	976	2	0	0	0	0	0	1	0	380	4	1.1	0.8;
	980	1	14.71	4.6	0	7.88	0	1	0	220	5	1.1	0.8;
	981	1	0	0	0	0.84	0	1	0	220	4	1.1	0.8;
	986	1	15.98	0.86	0	5.96	0	1	0	220	4	1.1	0.8;
	987	1	0	0	0	1.18	0	1	0	150	10	1.1	0.8;
	988	1	0	0	0	8.62	0	1	0	220	4	1.1	0.8;
	994	1	0	0	0	25	0	1	0	150	8	1.1	0.8;
	999	1	20.02	6.8	0	0.48	0	1	0	110	8	1.1	0.8;
	1000	1	0	0	0	1.8	0	1	0	220	1	1.1	0.8;
	1001	2	0	0	0	0	0	1	0	220	5	1.1	0.8;
	1002	2	0	0	0	0	0	1	0	220	5	1.1	0.8;
	1005	1	0	0	0	0.81	0	1	0	220	5	1.1	0.8;
	1010	1	21.32	7.3	0	0.6	0	1	0	110	8	1.1	0.8;
	1011	1	-0.2	-1	0	0	0	1	0	150	8	1.1	0.8;
	1013	1	136.06	40.4	0	12.08	0	1	0	220	4	1.1	0.8;
	1015	1	44.55	0	0	4.78	0	1	0	220	5	1.1	0.8;
	1020	1	8.21	3.31	0	8.38	0	1	0	150	8	1.1	0.8;
	1021	2	0	0	0	0	0	1	0	220	4	1.1	0.8;
	1023	1	0	0	0	0.93	0	1	0	220	4	1.1	0.8;
	1025	1	241.4	-2.5	0	31.28	0	1	0	380	10	1.1	0.8;
	1026	1	201.4	53	0	9.67	0	1	0	220	5	1.1	0.8;
	1027	1	-5.91	-2.33	0	30.39	0	1	0	380	5	1.1	0.8;
	1030	2	0	0	0	0	0	1	0	220	4	1.1	0.8;
	1033	1	26.33	5.3	0	4.31	0	1	0	220	5	1.1	0.8;
	1035	1	382.5	57.9	0	8.16	0	1	0	220	5	1.1	0.8;
	1036	2	0	0	0	0	0	1	0	220	10	1.1	0.8;
	1037	1	0	0	0	0.55	0	1	0	380	2	1.1	0.8;
	1039	1	34.64	0	0	0.91	0	1	0	220	5	1.1	0.8;
	1040	1	31.94	8.8	0	3.79	0	1	0	220	5	1.1	0.8;
	1043	2	0	0	0	0	0	1	0	380	5	1.1	0.8;
	1046	1	47.05	19.3	0	0.04	0	1	0	150	8	1.1	0.8;
	1051	1	0	0	0	3.79	0	1	0	220	5	1.1	0.8;
	1052	1	67.48	32.6	0	13.11	0	1	0	220	8	1.1	0.8;
	1057	1	0	0	0	0	0	1	0	220	8	1.1	0.8;
	1060	1	0	0	0	75.38	0	1	0	380	4	1.1	0.8;
	1064	1	215.2	-7.6	0	1.24	0	1	0	220	4	1.1	0.8;
	1065	1	89.6	20	0	9.07	0	1	0	220	4	1.1	0.8;
	1074	1	403.9	-0.1	0	143.1	0	1	0	380	4	1.1	0.8;
	1077	1	0	0	0	0.1	0	1	0	220	5	1.1	0.8;
	1078	1	0	0	0	4.74	0	1	0	220	5	1.1	0.8;
	1081	1	277.86	58.95	0	182.88	0	1	0	380	5	1.1	0.8;
	1083	2	0	0	0	0	0	1	0	220	5	1.1	0.8;
	1086	1	12.01	5.6	0	39.29	0	1	0	380	4	1.1	0.8;
	1090	1	56.06	18.7	0	4.24	0	1	0	220	5	1.1	0.8;
	1093	2	0	0	0	0	0	1	0	380	5	1.1	0.8;
	1094	1	28.53	11.3	0	3.25	0	1	0	150	8	1.1	0.8;
	1096	1	0	0	0	0.16	0	1	0	220	5	1.1	0.8;
	1100	2	0	0	0	0	0	1	0	220	5	1.1	0.8;
	1101	1	0	0	0	2.05	0	1	0	220	5	1.1	0.8;
	1102	2	0	0	0	0	0	1	0	220	5	1.1	0.8;
	1105	1	29.83	7.3	0	6.49	0	1	0	220	5	1.1	0.8;
	1106	1	192.4	63.9	0	10	0	1	0	150	8	1.1	0.8;
	1109	1	-54.06	13.1	0	14.23	0	1	0	220	10	1.1	0.8;
	1111	1	0	0	0	1.1	0	1	0	220	5	1.1	0.8;
	1114	1	59.27	5.1	0	26.03	0	1	0	380	4	1.1	0.8;
	1115	1	-40.54	9.3	0	3.05	0	1	0	220	4	1.1	0.8;
	1121	2	0	0	0	0	0	1	0	220	4	1.1	0.8;
	1123	1	-9	-10.19	0	0	0	1	0	150	8	1.1	0.8;
	1124	1	0	0	0	8.61	0	1	0	220	8	1.1	0.8;
	1129	1	190.47	55.03	0	6.7	0	1	0	220	5	1.1	0.8;
	1133	1	115.2	319.2	0	290.91	0	1	0	380	4	1.1	0.8;
	1136	1	16.22	2	0	0.71	0	1	0	220	5	1.1	0.8;
	1137	1	0	0	0	0.05	0	1	0	220	5	1.1	0.8;
	1146	1	32.84	0	0	1.41	0	1	0	220	5	1.1	0.8;
	1151	1	0	0	0	18.82	0	1	0	220	5	1.1	0.8;
	1153	1	12.41	3.9	0	2.23	0	1	0	220	5	1.1	0.8;
	1155	1	0	0	0	1.91	0	1	0	380	10	1.1	0.8;
	1156	1	65.67	24	0	9.95	0	1	0	220	5	1.1	0.8;
	1159	1	112.4	13	0	3.99	0	1	0	220	5	1.1	0.8;
	1163	1	0	0	0	16.04	0	1	0	380	2	1.1	0.8;
	1168	1	0	0	0	89.06	0	1	0	380	4	1.1	0.8;
	1172	1	0	0	0	2.3	0	1	0	220	5	1.1	0.8;
	1173	2	0	0	0	0	0	1	0	220	4	1.1	0.8;
	1174	2	0	0	0	0	0	1	0	150	10	1.1	0.8;
	1175	2	0	0	0	0	0	1	0	220	4	1.1	0.8;
	1179	1	86.6	23.4	0	0.39	0	1	0	220	5	1.1	0.8;
	1183	1	199.4	-19.9	0	6.68	0	1	0	220	5	1.1	0.8;
	1185	1	150.4	15.3	0	8.09	0	1	0	220	4	1.1	0.8;
	1187	1	67.57	21.2	0	5.71	0	1	0	220	5	1.1	0.8;
	1188	1	30.93	6.6	0	9.09	0	1	0	220	5	1.1	0.8;
	1194	1	129.6	13.3	0	13.98	0	1	0	380	5	1.1	0.8;
	1198	1	0	0	0	30.64	0	1	0	380	5	1.1	0.8;
	1200	1	124.8	7.9	0	48.99	0	1	0	380	4	1.1	0.8;
	1201	1	114.1	23.5	0	1.08	0	1	0	220	5	1.1	0.8;
	1205	1	-0.19	-1	0	0	0	1	0	150	8	1.1	0.8;
	1207	1	70.18	28.7	0	0.8	0	1	0	150	8	1.1	0.8;
	1216	1	0	0	0	4.93	0	1	0	220	5	1.1	0.8;
	1221	1	230.5	91	0	57.67	0	1	0	150	8	1.1	0.8;
	1227	1	-0.18	-1	0	0	0	1	0	150	8	1.1	0.8;
	1232	1	0	0	0	81.52	0	1	0	380	4	1.1	0.8;
	1233	1	0	0	0	1.72	0	1	0	220	5	1.1	0.8;
	1234	1	71.78	17.9	0	1.96	0	1	0	220	5	1.1	0.8;
	1237	2	0	0	0	0	0	1	0	380	5	1.1	0.8;
	1239	1	0	0	0	0	0	1	0	220	10	1.1	0.8;
	1240	1	23.53	4	0	9.39	0	1	0	220	4	1.1	0.8;
	1241	2	0	0	0	0	0	1	0	220	4	1.1	0.8;
	1248	1	0	0	0	1.17	0	1	0	220	5	1.1	0.8;
	1249	1	348.93	26.47	0	9.36	0	1	0	380	5	1.1	0.8;
	1250	1	39.44	24.9	0	4.18	0	1	0	150	10	1.1	0.8;
	1251	2	0	0	0	0	0	1	0	380	5	1.1	0.8;
	1255	1	20.62	8.2	0	6.62	0	1	0	150	8	1.1	0.8;
	1260	1	50.86	36.6	0	0	0	1	0	150	8	1.1	0.8;
	1262	1	0	0	0	10.73	0	1	0	220	5	1.1	0.8;
	1265	1	173	-21.3	0	5.93	0	1	0	220	5	1.1	0.8;
	1271	2	0	0	0	0	0	1	0	220	4	1.1	0.8;
	1275	1	52.46	2.9	0	0.35	0	1	0	220	5	1.1	0.8;
	1277	1	-0.2	-1	0	0	0	1	0	150	8	1.1	0.8;
	1280	1	0	0	0	107.39	0	1	0	380	4	1.1	0.8;
	1282	1	202	34.1	0	1.94	0	1	0	220	4	1.1	0.8;
	1294	1	6.11	0	0	2.51	0	1	0	220	4	1.1	0.8;
	1295	2	0	0	0	0	0	1	0	220	5	1.1	0.8;
	1301	1	479	99.2	0	10.68	0	1	0	220	5	1.1	0.8;
	1305	1	0	0	0	4.34	0	1	0	220	5	1.1	0.8;
	1311	1	37.94	15.2	0	35.31	0	1	0	380	5	1.1	0.8;
	1317	1	149.3	-2	0	20.77	0	1	0	380	2	1.1	0.8;
	1326	1	0	0	0	0.98	0	1	0	220	5	1.1	0.8;
	1330	1	100.6	15.3	0	1.28	0	1	0	150	8	1.1	0.8;
	1331	1	-0.17	-1.82	0	0	0	1	0	380	8	1.1	0.8;
	1334	1	0	0	0	0.59	0	1	0	220	5	1.1	0.8;
	1338	1	29.03	9.4	0	5.11	0	1	0	110	8	1.1	0.8;
	1339	1	108.4	-2.4	0	80.12	0	1	0	380	10	1.1	0.8;
	1341	2	0	0	0	0	0	1	0	220	5	1.1	0.8;
	1343	1	0	0	0	58.3	0	1	0	380	5	1.1	0.8;
	1344	1	0	0	0	2.13	0	1	0	220	4	1.1	0.8;
	1347	1	0	0	0	12.2	0	1	0	220	4	1.1	0.8;
	1350	1	30.53	13.8	0	2.19	0	1	0	150	8	1.1	0.8;
	1352	1	28.93	11.9	0	3.84	0	1	0	150	8	1.1	0.8;
	1354	2	0	0	0	0	0	1	0	220	5	1.1	0.8;
	1355	1	-3.29	-1.32	0	190.7	0	1	0	380	5	1.1	0.8;
	1362	1	0	0	0	6.93	0	1	0	220	8	1.1	0.8;
	1364	1	40.85	14.5	0	0.59	0	1	0	220	5	1.1	0.8;
	1367	1	0	0	0	-1.51	0	1	0	380	2	1.1	0.8;
	1380	1	145.2	21.4	0	1.09	0	1	0	220	5	1.1	0.8;
	1391	2	0	0	0	0	0	1	0	220	4	1.1	0.8;
	1392	1	0	0	0	4.2	0	1	0	220	8	1.1	0.8;
	1393	1	2.4	0.7	0	10.69	0	1	0	220	4	1.1	0.8;
	1394	1	30.93	7.6	0	4.69	0	1	0	220	5	1.1	0.8;
	1397	1	0	0	0	2.14	0	1	0	220	5	1.1	0.8;
	1398	1	196.7	44.2	0	0.1	0	1	0	220	5	1.1	0.8;
	1399	2	0	0	0	0	0	1	0	380	4	1.1	0.8;
	1401	1	11.91	2.9	0	5.27	0	1	0	220	5	1.1	0.8;
	1407	1	0	0	0	4.15	0	1	0	150	10	1.1	0.8;
	1409	2	0	0	0	0	0	1	0	220	4	1.1	0.8;
	1411	1	0	0	0	7.52	0	1	0	220	4	1.1	0.8;
	1414	1	144.7	20.3	0	6.35	0	1	0	220	5	1.1	0.8;
	1415	1	0	0	0	0.3	0	1	0	220	5	1.1	0.8;
	1418	1	40.55	3.6	0	1.88	0	1	0	220	4	1.1	0.8;
	1421	1	42.95	19.8	0	3.85	0	1	0	220	4	1.1	0.8;
	1422	2	0	0	0	0	0	1	0	220	5	1.1	0.8;
	1430	1	20.82	7.9	0	5.62	0	1	0	220	4	1.1	0.8;
	1435	1	0	0	0	3.85	0	1	0	220	5	1.1	0.8;
	1436	2	0	0	0	0	0	1	0	220	5	1.1	0.8;
	1437	1	204.6	53.2	0	7.4	0	1	0	220	4	1.1	0.8;
	1439	1	110.1	2	0	13.85	0	1	0	220	4	1.1	0.8;
	1445	1	238.4	210.9	0	0	0	1	0	220	2	1.1	0.8;
	1448	1	0	0	0	9.49	0	1	0	220	5	1.1	0.8;
	1457	1	20.82	36	0	0.97	0	1	0	220	4	1.1	0.8;
	1458	2	0	0	0	0	0	1	0	380	4	1.1	0.8;
	1459	1	0	0	0	3.38	0	1	0	220	5	1.1	0.8;
	1461	1	0	0	0	1.44	0	1	0	220	4	1.1	0.8;
	1462	1	0	0	0	0.42	0	1	0	220	5	1.1	0.8;
	1463	1	109.6	36.4	0	13.24	0	1	0	150	8	1.1	0.8;
	1464	1	22.73	6.4	0	2.1	0	1	0	150	8	1.1	0.8;
	1465	1	-11.03	-5.11	0	29.71	0	1	0	380	5	1.1	0.8;
	1471	1	95.61	8.6	0	3.48	0	1	0	220	4	1.1	0.8;
	1475	2	0	0	0	0	0	1	0	380	4	1.1	0.8;
	1477	1	0	0	0	5.51	0	1	0	150	8	1.1	0.8;
	1478	2	0	0	0	0	0	1	0	220	5	1.1	0.8;
	1479	1	82.19	23.4	0	17.91	0	1	0	380	4	1.1	0.8;
	1483	1	0	0	0	4.86	0	1	0	220	5	1.1	0.8;
	1486	1	79.59	18.8	0	6.78	0	1	0	220	5	1.1	0.8;
	1489	1	0	0	0	2.54	0	1	0	220	10	1.1	0.8;
	1491	1	117.5	-3	0	5.38	0	1	0	220	4	1.1	0.8;
	1494	1	-1.85	-1.63	0	31.42	0	1	0	380	5	1.1	0.8;
	1498	2	0	0	0	0	0	1	0	380	4	1.1	0.8;
	1501	1	0	0	0	12.57	0	1	0	220	4	1.1	0.8;
	1502	1	0	0	0	37.12	0	1	0	380	5	1.1	0.8;
	1503	1	142.8	-6.4	0	12.36	0	1	0	220	4	1.1	0.8;
	1504	1	0	0	0	1.84	0	1	0	220	5	1.1	0.8;
	1513	1	-35.74	38.6	0	4.65	0	1	0	220	4	1.1	0.8;
	1516	1	22.02	9	0	0.24	0	1	0	150	8	1.1	0.8;
	1520	1	173.6	72.9	0	2.5	0	1	0	220	4	1.1	0.8;
	1526	1	-10.86	-5.93	0	12.54	0	1	0	220	5	1.1	0.8;
	1531	1	0	0	0	0	0	1	0	150	2	1.1	0.8;
	1538	1	36.34	15.2	0	0.3	0	1	0	220	5	1.1	0.8;
	1539	1	73.58	3.24	0	52.35	0	1	0	220	5	1.1	0.8;
	1541	1	125.4	45.8	0	0	0	1	0	220	5	1.1	0.8;
	1543	1	116.7	64	0	10.41	0	1	0	220	10	1.1	0.8;
	1545	1	42.55	8.2	0	2.06	0	1	0	220	5	1.1	0.8;
	1547	1	0	0	0	1.02	0	1	0	220	5	1.1	0.8;
	1549	1	300.2	-3.1	0	29.94	0	1	0	380	4	1.1	0.8;
	1551	1	0	0	0	7.99	0	1	0	220	5	1.1	0.8;
	1552	1	20.42	8.1	0	35.15	0	1	0	380	5	1.1	0.8;
	1554	1	0	0	0	4.96	0	1	0	220	5	1.1	0.8;
	1556	1	0	0	0	0.95	0	1	0	220	5	1.1	0.8;
	1562	1	77.39	24.1	0	2.67	0	1	0	220	5	1.1	0.8;
	1564	1	140.4	49.4	0	4.5	0	1	0	150	8	1.1	0.8;
	1566	1	156.9	-4	0	2.48	0	1	0	220	5	1.1	0.8;
	1568	1	69.08	21.5	0	1.65	0	1	0	220	5	1.1	0.8;
	1570	2	0	0	0	0	0	1	0	380	10	1.1	0.8;
	1578	1	0	0	0	1.38	0	1	0	220	5	1.1	0.8;
	1579	1	0	0	0	16.56	0	1	0	380	2	1.1	0.8;
	1584	1	0	0	0	3.24	0	1	0	220	5	1.1	0.8;
	1591	1	-0.16	-11.88	0	16.12	0	1	0	380	8	1.1	0.8;
	1592	1	28.33	44.8	0	0.51	0	1	0	220	5	1.1	0.8;
	1595	1	71.77	13.57	0	3.84	0	1	0	220	5	1.1	0.8;
	1597	1	51.96	13.4	0	0.65	0	1	0	110	8	1.1	0.8;
	1599	1	0	0	0	0.48	0	1	0	220	4	1.1	0.8;
	1600	1	38.74	14.1	0	12.78	0	1	0	220	4	1.1	0.8;
	1602	1	45.75	4.2	0	4.9	0	1	0	220	4	1.1	0.8;
	1604	2	0	0	0	0	0	1	0	220	5	1.1	0.8;
	1605	1	0	0	0	0.05	0	1	0	220	5	1.1	0.8;
	1607	1	73.78	0	0	2.69	0	1	0	380	5	1.1	0.8;
	1609	1	0	0	0	6.55	0	1	0	220	5	1.1	0.8;
	1611	1	274.1	166.5	0	0.56	0	1	0	150	2	1.1	0.8;
	1616	1	0	0	0	14.45	0	1	0	380	2	1.1	0.8;
	1618	2	0	0	0	0	0	1	0	380	4	1.1	0.8;
	1625	1	73.18	22.3	0	8.77	0	1	0	220	5	1.1	0.8;
	1629	1	41.95	8.5	0	1.05	0	1	0	220	5	1.1	0.8;
	1632	1	20.82	7.9	0	1.07	0	1	0	220	4	1.1	0.8;
	1633	1	0	0	0	45.02	0	1	0	150	8	1.1	0.8;
	1635	1	-0.18	-1.06	0	0	0	1	0	150	8	1.1	0.8;
	1638	1	70.08	11.1	0	9.84	0	1	0	220	4	1.1	0.8;
	1639	1	51.66	8	0	4.51	0	1	0	220	4	1.1	0.8;
	1642	2	0	0	0	0	0	1	0	380	5	1.1	0.8;
	1643	1	95.71	25.9	0	11.38	0	1	0	220	5	1.1	0.8;
	1644	1	449.56	245.72	0	94.55	0	1	0	380	5	1.1	0.8;
	1645	1	60.27	9.4	0	0.62	0	1	0	220	4	1.1	0.8;
	1662	1	3.67	-1.86	0	3.89	0	1	0	220	5	1.1	0.8;
	1666	1	34.04	0	0	2.4	0	1	0	220	4	1.1	0.8;
	1670	1	46.45	19.1	0	6.66	0	1	0	150	8	1.1	0.8;
	1672	1	-28.13	-0.83	0	0.1	0	1	0	220	5	1.1	0.8;
	1676	1	0	0	0	-1.46	0	1	0	380	2	1.1	0.8;
	1680	2	0	0	0	0	0	1	0	380	5	1.1	0.8;
	1685	2	0	0	0	0	0	1	0	150	10	1.1	0.8;
	1689	1	0	0	0	58.96	0	1	0	380	8	1.1	0.8;
	1692	1	83.19	25.8	0	0.33	0	1	0	220	5	1.1	0.8;
	1697	2	0	0	0	0	0	1	0	380	4	1.1	0.8;
	1702	1	47.45	18.7	0	1.36	0	1	0	150	8	1.1	0.8;
	1703	1	68.28	39	0	79.85	0	1	0	380	10	1.1	0.8;
	1704	1	62.16	8	0	2.99	0	1	0	220	5	1.1	0.8;
	1708	2	0	0	0	0	0	1	0	380	5	1.1	0.8;
	1709	1	-15.38	-4.94	0	33.24	0	1	0	380	5	1.1	0.8;
	1711	1	25.13	-61.6	0	3.68	0	1	0	220	5	1.1	0.8;
	1716	1	0	0	0	16.62	0	1	0	380	4	1.1	0.8;
	1721	2	0	0	0	0	0	1	0	220	5	1.1	0.8;
	1722	1	-0.2	-1	0	0	0	1	0	150	8	1.1	0.8;
	1728	1	34.44	14.4	0	48.56	0	1	0	380	4	1.1	0.8;
	1730	1	-17.18	-4.35	0	44.42	0	1	0	380	5	1.1	0.8;
	1734	1	0	0	0	3.65	0	1	0	220	10	1.1	0.8;
	1741	1	162.5	48.4	0	5.73	0	1	0	220	4	1.1	0.8;
	1742	1	0	0	0	6.68	0	1	0	220	5	1.1	0.8;
	1746	1	0	0	0	1.86	0	1	0	220	5	1.1	0.8;
	1747	2	0	0	0	0	0	1	0	380	8	1.1	0.8;
	1750	1	58.46	6.6	0	10.13	0	1	0	220	5	1.1	0.8;
	1752	1	85.8	13.4	0	3.23	0	1	0	220	4	1.1	0.8;
	1754	2	0	0	0	0	0	1	0	380	5	1.1	0.8;
	1758	1	0	0	0	121.29	0	1	0	380	5	1.1	0.8;
	1763	1	0	0	0	0.28	0	1	0	380	5	1.1	0.8;
	1767	1	333.5	-1.4	0	8.37	0	1	0	220	5	1.1	0.8;
	1768	1	73.98	22.5	0	1.15	0	1	0	220	5	1.1	0.8;
	1769	1	35.14	1.8	0	6.12	0	1	0	220	4	1.1	0.8;
	1770	1	0	0	0	2.55	0	1	0	220	10	1.1	0.8;
	1774	1	-32.04	10.3	0	82.52	0	1	0	380	10	1.1	0.8;
	1775	1	0	0	0	1.64	0	1	0	220	5	1.1	0.8;
	1777	1	0	0	0	0.98	0	1	0	110	8	1.1	0.8;
	1778	1	-0.18	-3.85	0	0	0	1	0	150	8	1.1	0.8;
	1787	1	32.94	10.1	0	0.41	0	1	0	110	8	1.1	0.8;
	1788	2	0	0	0	0	0	1	0	380	8	1.1	0.8;
	1793	2	0	0	0	0	0	1	0	220	4	1.1	0.8;
	1794	2	0	0	0	0	0	1	0	380	5	1.1	0.8;
	1798	1	-0.63	-0.83	0	22.81	0	1	0	380	5	1.1	0.8;
	1802	1	8.51	3.2	0	2.93	0	1	0	220	4	1.1	0.8;
	1803	1	0	0	0	0.05	0	1	0	220	5	1.1	0.8;
	1808	2	0	0	0	0	0	1	0	220	5	1.1	0.8;
	1810	1	52.46	11.3	0	0.27	0	1	0	110	8	1.1	0.8;
	1813	1	88.92	19.79	0	2.81	0	1	0	220	5	1.1	0.8;
	1815	1	63.66	9.7	0	0	0	1	0	220	2	1.1	0.8;
	1817	1	108.91	33.7	0	56.24	0	1	0	380	5	1.1	0.8;
	1833	1	0	0	0	3.33	0	1	0	220	5	1.1	0.8;
	1836	1	62.37	25.5	0	3.98	0	1	0	150	8	1.1	0.8;
	1838	1	0	0	0	3.02	0	1	0	220	5	1.1	0.8;
	1841	1	56.26	8.5	0	5.32	0	1	0	220	4	1.1	0.8;
	1844	1	-28.14	-0.76	0	0.1	0	1	0	220	5	1.1	0.8;
	1848	1	22.02	21.8	0	10.29	0	1	0	220	10	1.1	0.8;
	1850	2	0	0	0	0	0	1	0	220	4	1.1	0.8;
	1851	2	0	0	0	0	0	1	0	220	5	1.1	0.8;
	1852	2	0	0	0	0	0	1	0	220	5	1.1	0.8;
	1857	1	0	0	0	1.53	0	1	0	220	5	1.1	0.8;
	1860	1	88.8	-3.2	0	13.63	0	1	0	220	5	1.1	0.8;
	1862	1	177.4	41.7	0	2.98	0	1	0	150	10	1.1	0.8;
	1866	1	209.2	23.5	0	6.44	0	1	0	220	5	1.1	0.8;
	1868	1	11.71	3.8	0	2.96	0	1	0	220	5	1.1	0.8;
	1869	1	-2.23	-1.27	0	3.64	0	1	0	220	4	1.1	0.8;
	1870	1	0	0	0	0.74	0	1	0	150	8	1.1	0.8;
	1872	1	94.3	13.8	0	5.3	0	1	0	220	4	1.1	0.8;
	1876	1	0	0	0	6.27	0	1	0	380	5	1.1	0.8;
	1880	1	50.26	16.4	0	0.23	0	1	0	150	8	1.1	0.8;
	1883	1	27.33	5	0	6.77	0	1	0	220	5	1.1	0.8;
	1888	2	0	0	0	0	0	1	0	220	5	1.1	0.8;
	1889	1	57.16	0	0	6.58	0	1	0	110	8	1.1	0.8;
	1890	2	0	0	0	0	0	1	0	380	8	1.1	0.8;
	1894	1	22.22	5.9	0	10.28	0	1	0	220	4	1.1	0.8;
	1895	1	20.82	0	0	0.14	0	1	0	220	5	1.1	0.8;
	1896	1	0	0	0	1.18	0	1	0	380	5	1.1	0.8;
	1897	1	53.96	4.9	0	4.21	0	1	0	220	4	1.1	0.8;
	1898	2	0	0	0	0	0	1	0	380	4	1.1	0.8;
	1899	1	0	0	0	48.32	0	1	0	380	10	1.1	0.8;
	1909	2	0	0	0	0	0	1	0	220	4	1.1	0.8;
	1910	1	0	0	0	2.68	0	1	0	220	5	1.1	0.8;
	1912	1	52.06	14.3	0	1.59	0	1	0	220	4	1.1	0.8;
	1913	1	91.1	54.8	0	30.59	0	1	0	150	8	1.1	0.8;
	1914	2	0	0	0	0	0	1	0	220	5	1.1	0.8;
	1917	1	197.5	-31	0	17.34	0	1	0	220	5	1.1	0.8;
	1923	1	192.11	45.5	0	68.04	0	1	0	380	5	1.1	0.8;
	1936	1	0	0	0	30.78	0	1	0	150	8	1.1	0.8;
	1940	1	0	0	0	1.19	0	1	0	220	5	1.1	0.8;
	1942	1	44.75	4.1	0	3.12	0	1	0	220	4	1.1	0.8;
	1947	2	0	0	0	0	0	1	0	380	4	1.1	0.8;
	1956	1	0	0	0	51.66	0	1	0	380	8	1.1	0.8;
	1957	1	76.28	2.9	0	7.28	0	1	0	220	4	1.1	0.8;
	1959	2	0	0	0	0	0	1	0	220	5	1.1	0.8;
	1965	1	248.7	8.1	0	12.46	0	1	0	220	5	1.1	0.8;
	1968	1	118.4	137	0	0	0	1	0	150	2	1.1	0.8;
	1969	1	0	0	0	0.86	0	1	0	220	4	1.1	0.8;
	1973	1	210.1	66.2	0	59.36	0	1	0	220	5	1.1	0.8;
	1974	1	241.9	38.8	0	12.46	0	1	0	220	10	1.1	0.8;
	1979	1	0	0	0	0.14	0	1	0	220	5	1.1	0.8;
	1980	1	177.3	36.4	0	0.7	0	1	0	220	5	1.1	0.8;
	1984	1	0	0	0	0	0	1	0	150	8	1.1	0.8;
	1985	1	147.4	-55.9	0	1.12	0	1	0	220	4	1.1	0.8;
	1989	1	69.78	20.3	0	10.26	0	1	0	110	8	1.1	0.8;
	1998	1	25.73	7.3	0	2.82	0	1	0	220	5	1.1	0.8;
	1999	2	0	0	0	0	0	1	0	380	10	1.1	0.8;
	2002	1	0	0	0	0	0	1	0	380	8	1.1	0.8;
	2006	1	-40.44	1.5	0	14.2	0	1	0	220	10	1.1	0.8;
	2009	1	154.8	-47.1	0	4.18	0	1	0	220	4	1.1	0.8;
	2012	1	41.45	4.9	0	18.43	0	1	0	220	5	1.1	0.8;
	2019	1	72.08	21.3	0	7.19	0	1	0	220	5	1.1	0.8;
	2020	1	0	0	0	9.98	0	1	0	220	5	1.1	0.8;
	2021	1	3.9	1	0	3.81	0	1	0	220	5	1.1	0.8;
	2030	2	0	0	0	0	0	1	0	150	8	1.1	0.8;
	2031	1	0	0	0	55.44	0	1	0	380	10	1.1	0.8;
	2035	2	0	0	0	0	0	1	0	380	5	1.1	0.8;
	2042	1	14.02	6.5	0	0.09	0	1	0	220	5	1.1	0.8;
	2043	1	3.2	1.7	0	0.05	0	1	0	220	5	1.1	0.8;
	2044	1	0	0	0	0.14	0	1	0	220	5	1.1	0.8;
	2050	2	0	0	0	0	0	1	0	380	5	1.1	0.8;
	2055	1	52.66	21.5	0	0.04	0	1	0	150	8	1.1	0.8;
	2056	1	0	0	0	7.34	0	1	0	380	5	1.1	0.8;
	2057	1	120.2	20.5	0	19.94	0	1	0	220	5	1.1	0.8;
	2058	1	0	0	0	1.31	0	1	0	380	10	1.1	0.8;
	2060	1	115.1	23.5	0	3.78	0	1	0	220	4	1.1	0.8;
	2072	1	101.2	2.1	0	38.43	0	1	0	380	5	1.1	0.8;
	2077	1	72.18	44.9	0	6.34	0	1	0	150	8	1.1	0.8;
	2078	1	77.19	18.6	0	2.22	0	1	0	220	5	1.1	0.8;
	2079	1	0	0	0	13.94	0	1	0	220	5	1.1	0.8;
	2081	1	30.93	2.8	0	2.11	0	1	0	220	4	1.1	0.8;
	2083	1	121.4	20.2	0	16.61	0	1	0	220	5	1.1	0.8;
	2085	2	0	0	0	0	0	1	0	380	5	1.1	0.8;
	2088	1	0	0	0	6.02	0	1	0	220	5	1.1	0.8;
	2089	1	199.86	56.93	0	46.83	0	1	0	220	5	1.1	0.8;
	2091	2	0	0	0	0	0	1	0	220	4	1.1	0.8;
	2093	1	-5.64	-2.84	0	34.58	0	1	0	380	5	1.1	0.8;
	2096	2	0	0	0	0	0	1	0	380	4	1.1	0.8;
	2101	1	0	0	0	38.32	0	1	0	380	5	1.1	0.8;
	2107	2	0	0	0	0	0	1	0	380	2	1.1	0.8;
	2116	1	53.36	7.1	0	6.02	0	1	0	220	4	1.1	0.8;
	2117	1	-0.2	-1	0	0	0	1	0	150	8	1.1	0.8;
	2120	1	-0.19	-3.76	0	0	0	1	0	150	8	1.1	0.8;
	2126	1	92.3	14.6	0	1.14	0	1	0	220	4	1.1	0.8;
	2128	1	79.09	18.7	0	10.8	0	1	0	220	5	1.1	0.8;
	2129	1	0	0	0	56.69	0	1	0	380	5	1.1	0.8;
	2132	1	107.3	14.2	0	20.23	0	1	0	220	5	1.1	0.8;
	2140	1	0	0	0	1.2	0	1	0	150	10	1.1	0.8;
	2142	1	0	0	0	7.63	0	1	0	220	5	1.1	0.8;
	2143	1	129.5	38.3	0	5.42	0	1	0	220	4	1.1	0.8;
	2147	1	6.11	0	0	0.92	0	1	0	220	4	1.1	0.8;
	2150	2	0	0	0	0	0	1	0	380	8	1.1	0.8;
	2154	1	0	0	0	13.47	0	1	0	380	2	1.1	0.8;