function mpc = case9241pegase_OPF1
%CASE9241PEGASE_OPF1

%% MATPOWER Case Format : Version 2
mpc.version = '2';

%%-----  Power Flow Data  -----%%
%% system MVA base
mpc.baseMVA = 100;

%% bus data
%	bus_i	type	Pd	Qd	Gs	Bs	area	Vm	Va	baseKV	zone	Vmax	Vmin
mpc.bus = [
	1	1	378.4	98.5	0	16.61	0	1	0	220	6	1.2	0.8;
	2	2	0	0	0	0	0	1	0	154	1	1.2	0.8;
	3	1	151	48.8	0	4.69	0	1	0	220	5	1.2	0.8;
	4	1	171.41	23.4	0	2.1	0	1	0	220	5	1.2	0.8;
	5	1	45.95	14	0	13.34	0	1	0	220	6	1.2	0.8;
	6	2	0	0	0	0	0	1	0	380	6	1.2	0.8;
	7	1	31.03	10.3	0	0.65	0	1	0	110	21	1.2	0.8;
	8	2	0	0	0	0	0	1	0	154	1	1.2	0.8;
	9	1	14.3	2	0	1.91	0	1	0	154	1	1.2	0.8;
	10	1	134	24.7	0	12.44	0	1	0	220	5	1.2	0.8;
	11	1	0	0	0	0	0	1	0	150	9	1.2	0.8;
	12	1	-6.11	2	0	0.47	0	1	0	150	9	1.2	0.8;
	13	1	-22.74	-8.32	0	6.5	0	1	0	220	6	1.2	0.8;
	14	1	13.5	14.8	0	132.44	0	1	0	380	9	1.2	0.8;
	15	1	59.67	26.7	0	12.84	0	1	0	220	4	1.2	0.8;
	16	1	30.6	4.3	0	5.15	0	1	0	154	1	1.2	0.8;
	17	1	67.68	12.1	0	2.18	0	1	0	220	3	1.2	0.8;
	18	2	0	0	0	0	0	1	0	380	3	1.2	0.8;
	19	1	25.33	7.5	0	2.39	0	1	0	110	12	1.2	0.8;
	20	1	1.4	0.2	0	4.93	0	1	0	154	1	1.2	0.8;
	21	1	161.2	39.3	0	30.71	0	1	0	220	5	1.2	0.8;
	22	1	0	0	0	0.85	0	1	0	220	5	1.2	0.8;
	23	1	19.62	7.1	0	1.15	0	1	0	110	19	1.2	0.8;
	24	1	17.22	5.7	0	1.22	0	1	0	110	21	1.2	0.8;
	25	2	0	0	0	0	0	1	0	220	3	1.2	0.8;
	26	1	167.3	54.8	0	110.54	0	1	0	380	5	1.2	0.8;
	27	1	0	0	0	14.82	0	1	0	380	13	1.2	0.8;
	28	1	0	0	0	0	0	1	0	150	9	1.2	0.8;
	29	1	152.9	49.4	0	27.65	0	1	0	380	5	1.2	0.8;
	30	1	0	0	0	0.56	0	1	0	150	9	1.2	0.8;
	31	1	69.68	43.2	0	6.3	0	1	0	150	9	1.2	0.8;
	32	2	0	0	0	0	0	1	0	220	4	1.2	0.8;
	33	2	0	0	0	0	0	1	0	220	4	1.2	0.8;
	34	1	13.52	4.9	0	1.8	0	1	0	110	19	1.2	0.8;
	35	1	10.51	3.5	0	0.31	0	1	0	110	12	1.2	0.8;
	36	1	0	0	0	15.34	0	1	0	220	19	1.2	0.8;
	37	1	9.21	2.6	0	2	0	1	0	110	18	1.2	0.8;
	38	1	42.75	12.8	0	13.3	0	1	0	220	8	1.2	0.8;
	39	2	0	0	0	0	0	1	0	150	10	1.2	0.8;
	40	1	16.02	4.54	0	0.1	0	1	0	110	23	1.2	0.8;
	41	1	27.9	4	0	4.23	0	1	0	154	1	1.2	0.8;
	42	1	20.82	7.9	0	26.89	0	1	0	380	4	1.2	0.8;
	43	1	12.6	1.8	0	2.03	0	1	0	154	1	1.2	0.8;
	44	1	0	0	0	7.27	0	1	0	220	5	1.2	0.8;
	45	1	10.11	3.7	0	0.81	0	1	0	110	19	1.2	0.8;
	46	1	10.01	2.7	0	1.14	0	1	0	110	18	1.2	0.8;
	47	1	6.31	0	0	0.67	0	1	0	110	18	1.2	0.8;
	48	1	2.9	0.9	0	0.6	0	1	0	110	15	1.2	0.8;
	49	2	0	0	0	0	0	1	0	220	6	1.2	0.8;
	50	1	48.8	6.9	0	8.71	0	1	0	154	1	1.2	0.8;
	51	2	0	0	0	0	0	1	0	220	4	1.2	0.8;
	52	1	127.6	31.8	0	20.51	0	1	0	150	8	1.2	0.8;
	53	1	48.65	16.1	0	7.14	0	1	0	220	5	1.2	0.8;
	54	1	110.5	-26.8	0	16.37	0	1	0	220	6	1.2	0.8;
	55	1	0	0	0	1.23	0	1	0	220	3	1.2	0.8;
	56	1	140	79.7	0	6.5	0	1	0	220	3	1.2	0.8;
	57	1	21.6	3	0	3.54	0	1	0	154	1	1.2	0.8;
	58	1	0	0	0	2.31	0	1	0	380	5	1.2	0.8;
	59	1	119.2	20.7	0	3.31	0	1	0	220	5	1.2	0.8;
	60	1	0.24	-1.66	0	0.65	0	1	0	110	18	1.2	0.8;
	61	1	0	0	0	58.57	0	1	0	380	3	1.2	0.8;
	62	1	0	0	0	1.34	0	1	0	110	18	1.2	0.8;
	63	1	187.9	110.2	0	21.25	0	1	0	380	3	1.2	0.8;
	64	1	14.92	5.5	0	1.31	0	1	0	110	15	1.2	0.8;
	65	1	-18.52	6.1	0	0.79	0	1	0	150	9	1.2	0.8;
	66	1	4.61	1.7	0	2.32	0	1	0	110	19	1.2	0.8;
	67	1	0	0	0	82.13	0	1	0	380	18	1.2	0.8;
	68	1	10.81	5.1	0	1.09	0	1	0	110	18	1.2	0.8;
	69	1	62.87	20.5	0	1.15	0	1	0	150	8	1.2	0.8;
	70	1	0	0	0	2.64	0	1	0	154	1	1.2	0.8;
	71	1	126.3	42.4	0	55.24	0	1	0	150	8	1.2	0.8;
	72	1	6.91	-4.6	0	5.75	0	1	0	220	4	1.2	0.8;
	73	1	15.72	5.2	0	0.11	0	1	0	110	12	1.2	0.8;
	74	1	0	0	0	0	0	1	0	150	9	1.2	0.8;
	75	1	38.74	6.1	0	1.17	0	1	0	220	4	1.2	0.8;
	76	1	22.13	10.7	0	14.21	0	1	0	220	8	1.2	0.8;
	77	1	0	0	0	0.73	0	1	0	220	4	1.2	0.8;
	78	1	0	0	0	0.83	0	1	0	110	18	1.2	0.8;
	79	1	138.8	136.7	0	8.76	0	1	0	380	3	1.2	0.8;
	80	2	0	0	0	0	0	1	0	220	23	1.2	0.8;
	81	1	67.76	19.18	0	1.47	0	1	0	150	1	1.2	0.8;
	82	1	22.02	5.1	0	0.69	0	1	0	110	1	1.2	0.8;
	83	1	0	0	0	6.62	0	1	0	220	3	1.2	0.8;
	84	1	1	0.3	0	0.19	0	1	0	110	19	1.2	0.8;
	85	1	20.9	3	0	5.74	0	1	0	154	1	1.2	0.8;
	86	1	0	0	0	0.12	0	1	0	150	9	1.2	0.8;
	87	1	21.52	5.1	0	0.5	0	1	0	110	18	1.2	0.8;
	88	1	71.98	28.8	0	11	0	1	0	220	6	1.2	0.8;
	89	1	0	0	0	4.53	0	1	0	380	2	1.2	0.8;
	90	1	363.25	115.39	0	3.95	0	1	0	220	5	1.2	0.8;
	91	1	0	0	0	0.02	0	1	0	150	8	1.2	0.8;
	92	1	192.9	73.3	0	20.75	0	1	0	380	3	1.2	0.8;
	93	1	17.52	6.3	0	0.26	0	1	0	110	19	1.2	0.8;
	94	1	33.14	12	0	0.65	0	1	0	110	19	1.2	0.8;
	95	1	40.45	25	0	9.82	0	1	0	150	9	1.2	0.8;
	96	1	193.17	53.37	0	4.58	0	1	0	220	5	1.2	0.8;
	97	1	0	0	0	9.38	0	1	0	380	1	1.2	0.8;
	98	1	90.7	25.5	0	3.11	0	1	0	220	3	1.2	0.8;
	99	1	176.3	-58.9	0	24.77	0	1	0	380	6	1.2	0.8;
	100	1	35.94	22.3	0	0	0	1	0	150	9	1.2	0.8;
	101	1	0	0	0	0.29	0	1	0	150	9	1.2	0.8;
	102	1	0	0	0	3.77	0	1	0	220	6	1.2	0.8;
	103	1	65.07	40.3	0	5.43	0	1	0	150	9	1.2	0.8;
	104	1	51.36	-8.8	0	2.15	0	1	0	220	6	1.2	0.8;
	105	1	0	0	0	82.55	0	1	0	380	6	1.2	0.8;
	106	1	0	0	0	31.19	0	1	0	380	23	1.2	0.8;
	107	2	0	0	0	0	0	1	0	380	3	1.2	0.8;
	108	1	3.8	1.3	0	0.4	0	1	0	110	18	1.2	0.8;
	109	1	137	19.5	0	4.9	0	1	0	154	1	1.2	0.8;
	110	1	0	0	0	0	0	1	0	150	9	1.2	0.8;
	111	1	61.07	36	0	3.09	0	1	0	220	11	1.2	0.8;
	112	1	0	0	0	3.24	0	1	0	220	3	1.2	0.8;
	113	1	0	0	0	6.53	0	1	0	380	5	1.2	0.8;
	114	1	55.7	7.9	0	4.21	0	1	0	154	1	1.2	0.8;
	115	1	0	0	0	4.21	0	1	0	220	5	1.2	0.8;
	116	1	1.8	0.7	0	0.3	0	1	0	110	19	1.2	0.8;
	117	1	40.04	16	0	0.52	0	1	0	110	18	1.2	0.8;
	118	1	0	0	0	36.56	0	1	0	380	5	1.2	0.8;
	119	1	0	0	0	0.09	0	1	0	150	9	1.2	0.8;
	120	1	140.6	20.1	0	13.81	0	1	0	154	1	1.2	0.8;
	121	1	45.15	14.1	0	0.19	0	1	0	110	15	1.2	0.8;
	122	1	0	0	0	5.75	0	1	0	220	3	1.2	0.8;
	123	2	0	0	0	0	0	1	0	220	11	1.2	0.8;
	124	2	0	0	0	0	0	1	0	220	5	1.2	0.8;
	125	1	3.42	2.68	0	1.46	0	1	0	110	18	1.2	0.8;
	126	1	0	0	0	2.64	0	1	0	154	1	1.2	0.8;
	127	1	0	0	0	4.3	0	1	0	220	6	1.2	0.8;
	128	1	23.73	12.7	0	0.52	0	1	0	220	5	1.2	0.8;
	129	1	121.9	7.4	0	1.34	0	1	0	220	3	1.2	0.8;
	130	1	0	0	0	47.75	0	1	0	380	10	1.2	0.8;
	131	1	47.35	16.4	0	4.08	0	1	0	110	22	1.2	0.8;
	132	1	0	0	0	21.39	0	1	0	380	1	1.2	0.8;
	133	1	38.14	12.5	0	6.28	0	1	0	150	8	1.2	0.8;
	134	1	54.2	7.8	0	94.9	0	1	0	400	1	1.2	0.8;
	135	1	130.6	84.9	0	4.22	0	1	0	220	7	1.2	0.8;
	136	1	7.91	2.6	0	0.74	0	1	0	110	12	1.2	0.8;
	137	1	42.1	74.61	0	37.58	0	1	0	150	1	1.2	0.8;
	138	1	-75.38	7.8	0	29.9	0	1	0	380	10	1.2	0.8;
	139	1	0	0	0	36.92	0	1	0	380	8	1.2	0.8;
	140	1	0	0	0	4.14	0	1	0	220	8	1.2	0.8;
	141	2	0	0	0	0	0	1	0	220	13	1.2	0.8;
	142	2	0	0	0	0	0	1	0	220	6	1.2	0.8;
	143	1	0	0	0	0	0	1	0	150	8	1.2	0.8;
	144	1	0	0	0	98.53	0	1	0	380	14	1.2	0.8;
	145	1	38.34	5.6	0	7.64	0	1	0	220	5	1.2	0.8;
	146	1	269.6	65.7	0	0	0	1	0	120	20	1.2	0.8;
	147	2	0	0	0	0	0	1	0	220	7	1.2	0.8;
	148	1	32.34	12	0	6.1	0	1	0	220	5	1.2	0.8;
	149	1	100.1	45.1	0	1.11	0	1	0	380	6	1.2	0.8;
	150	2	0	0	0	0	0	1	0	220	5	1.2	0.8;
	151	2	0	0	0	0	0	1	0	154	1	1.2	0.8;
	152	1	7	1	0	4.69	0	1	0	154	1	1.2	0.8;
	153	1	0	0	0	0.56	0	1	0	150	7	1.2	0.8;
	154	1	0	0	0	1.29	0	1	0	110	12	1.2	0.8;
	155	1	0	0	0	1.7	0	1	0	110	21	1.2	0.8;
	156	1	40.34	25	0	1.14	0	1	0	150	9	1.2	0.8;
	157	1	9.21	3.3	0	1.2	0	1	0	110	19	1.2	0.8;
	158	1	166	60.3	0	0.57	0	1	0	220	3	1.2	0.8;
	159	1	0	0	0	0.1	0	1	0	150	9	1.2	0.8;
	160	1	79.4	11.3	0	4.92	0	1	0	154	1	1.2	0.8;
	161	1	0	0	0	0.16	0	1	0	150	9	1.2	0.8;
	162	1	0	0	0	66.65	0	1	0	380	6	1.2	0.8;
	163	1	147.76	32.73	0	8.34	0	1	0	220	5	1.2	0.8;
	164	1	0	0	0	5.17	0	1	0	150	8	1.2	0.8;
	165	1	26.8	-3.7	0	51.26	0	1	0	380	9	1.2	0.8;
	166	2	0	0	0	0	0	1	0	220	3	1.2	0.8;
	167	1	257.5	131.1	0	1.08	0	1	0	220	3	1.2	0.8;
	168	1	16.7	2.4	0	6.09	0	1	0	154	1	1.2	0.8;
	169	1	0	0	0	1.91	0	1	0	150	9	1.2	0.8;
	170	1	0	0	0	2.35	0	1	0	220	1	1.2	0.8;
	171	1	100.8	13.2	0	5.24	0	1	0	220	5	1.2	0.8;
	172	1	111.7	10.96	0	4.22	0	1	0	220	4	1.2	0.8;
	173	1	90.38	-5.05	0	8.49	0	1	0	220	13	1.2	0.8;
	174	1	370.5	-17	0	9.91	0	1	0	220	5	1.2	0.8;
	175	1	9.91	3.2	0	0.67	0	1	0	110	12	1.2	0.8;
	176	1	-0.69	-5.46	0	5.07	0	1	0	150	9	1.2	0.8;
	177	1	94.9	36.2	0	16.46	0	1	0	220	10	1.2	0.8;
	178	1	81.09	48	0	0.03	0	1	0	150	9	1.2	0.8;
	179	2	0	0	0	0	0	1	0	380	4	1.2	0.8;
	180	1	0	0	0	0.54	0	1	0	110	21	1.2	0.8;
	181	1	54.96	16.9	0	3.37	0	1	0	110	22	1.2	0.8;
	182	1	19.32	26	0	0.69	0	1	0	220	3	1.2	0.8;
	183	1	0	0	0	1.83	0	1	0	150	9	1.2	0.8;
	184	1	0	0	0	2.42	0	1	0	220	5	1.2	0.8;
	185	1	20.9	3	0	4.11	0	1	0	154	1	1.2	0.8;
	186	1	19.92	6.6	0	0.56	0	1	0	110	21	1.2	0.8;
	187	1	57.16	2	0	1.48	0	1	0	110	22	1.2	0.8;
	188	1	36.84	13.9	0	3.3	0	1	0	220	5	1.2	0.8;
	189	1	-15.04	-5.12	0	0.43	0	1	0	110	18	1.2	0.8;
	190	2	0	0	0	0	0	1	0	110	19	1.2	0.8;
	191	1	0	0	0	14.19	0	1	0	220	6	1.2	0.8;
	192	2	0	0	0	0	0	1	0	380	3	1.2	0.8;
	193	1	119.9	3.7	0	3.33	0	1	0	220	3	1.2	0.8;
	194	2	0	0	0	0	0	1	0	150	8	1.2	0.8;
	195	1	73.14	21.55	0	8.52	0	1	0	220	5	1.2	0.8;
	196	1	0	0	0	12.48	0	1	0	220	5	1.2	0.8;
	197	2	0	0	0	0	0	1	0	380	3	1.2	0.8;
	198	1	39.74	11.8	0	1.44	0	1	0	220	5	1.2	0.8;
	199	1	86.8	28.4	0	1.34	0	1	0	150	8	1.2	0.8;
	200	1	22.42	2.1	0	0.19	0	1	0	150	1	1.2	0.8;
	201	2	0	0	0	0	0	1	0	220	4	1.2	0.8;
	202	1	110.9	32.7	0	15.4	0	1	0	220	14	1.2	0.8;
	203	1	18.2	2.6	0	12.38	0	1	0	154	1	1.2	0.8;
	204	1	0	0	0	14.69	0	1	0	220	18	1.2	0.8;
	205	1	46.15	18.2	0	1.29	0	1	0	150	8	1.2	0.8;
	206	1	34.04	12.3	0	0.23	0	1	0	110	19	1.2	0.8;
	207	1	321.98	84.4	0	1.34	0	1	0	220	5	1.2	0.8;
	208	1	33.44	10	0	1.36	0	1	0	110	3	1.2	0.8;
	209	2	0	0	0	0	0	1	0	110	12	1.2	0.8;
	210	1	0	0	0	0	0	1	0	150	9	1.2	0.8;
	211	1	75.28	19.2	0	1.9	0	1	0	110	8	1.2	0.8;
	212	1	95.69	24.54	0	2.85	0	1	0	220	13	1.2	0.8;
	213	1	37.34	10.9	0	0.63	0	1	0	110	1	1.2	0.8;
	214	2	0	0	0	0	0	1	0	380	13	1.2	0.8;
	215	1	0	0	0	4.93	0	1	0	110	18	1.2	0.8;
	216	1	155.6	54.7	0	2.21	0	1	0	220	5	1.2	0.8;
	217	1	105.2	0.1	0	7.36	0	1	0	220	5	1.2	0.8;
	218	1	69.83	15.12	0	2.23	0	1	0	220	5	1.2	0.8;
	219	2	0	0	0	0	0	1	0	380	7	1.2	0.8;
	220	2	0	0	0	0	0	1	0	380	6	1.2	0.8;
	221	2	0	0	0	0	0	1	0	380	5	1.2	0.8;
	222	2	0	0	0	0	0	1	0	150	1	1.2	0.8;
	223	1	27.03	8.8	0	1.84	0	1	0	110	21	1.2	0.8;
	224	1	2.6	0.5	0	0.14	0	1	0	110	18	1.2	0.8;
	225	1	0	0	0	1.15	0	1	0	220	5	1.2	0.8;
	226	1	14.62	4.8	0	1.02	0	1	0	110	12	1.2	0.8;
	227	1	0	0	0	2.55	0	1	0	220	7	1.2	0.8;
	228	1	-23.43	57.4	0	0	0	1	0	150	2	1.2	0.8;
	229	1	426.6	93.7	0	80.94	0	1	0	380	6	1.2	0.8;
	230	1	152.07	22.52	0	7.87	0	1	0	220	4	1.2	0.8;
	231	1	-0.13	-1	0	0	0	1	0	110	8	1.2	0.8;
	232	1	0	0	0	0.7	0	1	0	150	9	1.2	0.8;
	233	1	2.5	3.8	0	0.15	0	1	0	110	18	1.2	0.8;
	234	1	16.7	2.4	0	0.87	0	1	0	154	1	1.2	0.8;
	235	1	34.04	4.4	0	1.25	0	1	0	110	22	1.2	0.8;
	236	1	45.85	7	0	1.05	0	1	0	220	4	1.2	0.8;
	237	1	0	0	0	30.97	0	1	0	380	3	1.2	0.8;
	238	1	0	0	0	19.36	0	1	0	220	6	1.2	0.8;
	239	2	0	0	0	0	0	1	0	110	19	1.2	0.8;
	240	1	0	0	0	0	0	1	0	150	9	1.2	0.8;
	241	1	0	0	0	3.95	0	1	0	220	3	1.2	0.8;
	242	1	167.9	18.2	0	5.97	0	1	0	220	3	1.2	0.8;
	243	1	0	-0.01	0	13.49	0	1	0	150	8	1.2	0.8;
	244	1	0	0	0	0.68	0	1	0	150	8	1.2	0.8;
	245	1	16.62	5.5	0	1.34	0	1	0	110	21	1.2	0.8;
	246	2	0	0	0	0	0	1	0	220	1	1.2	0.8;
	247	1	0	0	0	0.72	0	1	0	110	18	1.2	0.8;
	248	2	0	0	0	0	0	1	0	380	13	1.2	0.8;
	249	1	0	0	0	26.3	0	1	0	220	4	1.2	0.8;
	250	1	0	0	0	13.85	0	1	0	380	3	1.2	0.8;
	251	1	118.4	16.9	0	8.02	0	1	0	154	1	1.2	0.8;
	252	1	0	0	0	2.66	0	1	0	220	3	1.2	0.8;
	253	1	0	0	0	4.06	0	1	0	220	1	1.2	0.8;
	254	1	0	0	0	12.74	0	1	0	380	21	1.2	0.8;
	255	2	0	0	0	0	0	1	0	380	16	1.2	0.8;
	256	1	0	0	0	7.09	0	1	0	220	6	1.2	0.8;
	257	1	113.9	24.5	0	6.72	0	1	0	220	4	1.2	0.8;
	258	1	88	12.6	0	22.25	0	1	0	154	1	1.2	0.8;
	259	1	42.67	12.11	0	14.84	0	1	0	150	9	1.2	0.8;
	260	1	216.8	40.5	0	5.91	0	1	0	220	3	1.2	0.8;
	261	1	0	0	0	1.29	0	1	0	380	10	1.2	0.8;
	262	2	0	0	0	0	0	1	0	220	13	1.2	0.8;
	263	2	0	0	0	0	0	1	0	154	1	1.2	0.8;
	264	1	38.74	9	0	0.57	0	1	0	220	4	1.2	0.8;
	265	1	350.4	29.3	0	19.31	0	1	0	220	11	1.2	0.8;
	266	1	0	0	0	140.96	0	1	0	380	4	1.2	0.8;
	267	1	103.8	2.7	0	3.33	0	1	0	220	4	1.2	0.8;
	268	1	-0.13	-1	0	0	0	1	0	220	8	1.2	0.8;
	269	1	0	0	0	0.66	0	1	0	110	22	1.2	0.8;
	270	1	0	0	0	6.34	0	1	0	380	1	1.2	0.8;
	271	1	96.7	26.8	0	0	0	1	0	150	2	1.2	0.8;
	272	1	0	0	0	19.54	0	1	0	150	9	1.2	0.8;
	273	1	0	0	0	14.87	0	1	0	220	23	1.2	0.8;
	274	1	19.02	6	0	0.25	0	1	0	110	21	1.2	0.8;
	275	1	102.1	25.3	0	1.11	0	1	0	150	8	1.2	0.8;
	276	1	0	0	0	2.44	0	1	0	220	3	1.2	0.8;
	277	1	0	0	0	0	0	1	0	150	9	1.2	0.8;
	278	2	0	0	0	0	0	1	0	110	18	1.2	0.8;
	279	1	8.31	3	0	0.99	0	1	0	110	19	1.2	0.8;
	280	1	119.6	29.6	0	5.34	0	1	0	220	5	1.2	0.8;
	281	1	0	0	0	18.07	0	1	0	380	8	1.2	0.8;
	282	2	0	0	0	0	0	1	0	380	18	1.2	0.8;
	283	1	27.33	11.9	0	1.17	0	1	0	220	5	1.2	0.8;
	284	1	191.2	-3.4	0	19.21	0	1	0	220	4	1.2	0.8;
	285	1	0	0	0	18.29	0	1	0	380	1	1.2	0.8;
	286	1	101.6	14.5	0	1.94	0	1	0	154	1	1.2	0.8;
	287	1	177.1	66.9	0	71.03	0	1	0	380	16	1.2	0.8;
	288	1	0	0	0	0.3	0	1	0	150	9	1.2	0.8;
	289	2	0	0	0	0	0	1	0	220	6	1.2	0.8;
	290	1	53.46	18.7	0	1.64	0	1	0	220	20	1.2	0.8;
	291	1	0	0	0	12.73	0	1	0	220	14	1.2	0.8;
	292	1	13.82	1.4	0	0.7	0	1	0	220	5	1.2	0.8;
	293	1	85.1	67	0	0.18	0	1	0	150	9	1.2	0.8;
	294	2	0	0	0	0	0	1	0	400	1	1.2	0.8;
	295	1	0	0	0	0.08	0	1	0	220	6	1.2	0.8;
	296	1	189.3	76.7	0	3.24	0	1	0	220	3	1.2	0.8;
	297	1	23.73	9.4	0	1.45	0	1	0	150	8	1.2	0.8;
	298	1	10.01	-21	0	8.59	0	1	0	220	11	1.2	0.8;
	299	2	0	0	0	0	0	1	0	380	4	1.2	0.8;
	300	1	0	0	0	1.05	0	1	0	150	9	1.2	0.8;
	301	1	-14.85	-4.95	0	0.37	0	1	0	110	18	1.2	0.8;
	302	1	20.9	3	0	2.65	0	1	0	154	1	1.2	0.8;
	303	1	431.7	121.6	0	1.14	0	1	0	220	21	1.2	0.8;
	304	1	2.2	0.5	0	0.21	0	1	0	150	10	1.2	0.8;
	305	1	103	12	0	0.63	0	1	0	220	5	1.2	0.8;
	306	1	0	0	0	4.76	0	1	0	220	5	1.2	0.8;
	307	1	0	0	0	25.85	0	1	0	380	1	1.2	0.8;
	308	1	0	0	0	0	0	1	0	150	9	1.2	0.8;
	309	2	0	0	0	0	0	1	0	220	3	1.2	0.8;
	310	2	0	0	0	0	0	1	0	380	9	1.2	0.8;
	311	1	42.05	17.2	0	1.31	0	1	0	150	8	1.2	0.8;
	312	1	-0.16	-2.91	0	0.43	0	1	0	110	8	1.2	0.8;
	313	2	0	0	0	0	0	1	0	154	1	1.2	0.8;
	314	1	163.1	46.3	0	10.6	0	1	0	220	5	1.2	0.8;
	315	1	0	0	0	2.13	0	1	0	220	10	1.2	0.8;
	316	1	0	0	0	2.81	0	1	0	220	3	1.2	0.8;
	317	1	0	0	0	-1.82	0	1	0	380	2	1.2	0.8;
	318	1	0	0	0	1.05	0	1	0	150	9	1.2	0.8;
	319	1	153.3	21.8	0	18.25	0	1	0	154	1	1.2	0.8;
	320	2	0	0	0	0	0	1	0	400	1	1.2	0.8;
	321	1	67.17	-23.9	0	0.93	0	1	0	220	3	1.2	0.8;
	322	1	303.8	85.4	0	3.63	0	1	0	220	10	1.2	0.8;
	323	1	0	0	0	0	0	1	0	400	1	1.2	0.8;
	324	2	0	0	0	0	0	1	0	380	3	1.2	0.8;
	325	2	0	0	0	0	0	1	0	154	1	1.2	0.8;
	326	1	0	0	0	0	0	1	0	220	8	1.2	0.8;
	327	1	0	0	0	12.29	0	1	0	380	3	1.2	0.8;
	328	2	0	0	0	0	0	1	0	220	13	1.2	0.8;
	329	1	24.23	7.1	0	1.64	0	1	0	110	21	1.2	0.8;
	330	1	108.6	2.6	0	31.8	0	1	0	380	3	1.2	0.8;
	331	1	4	2.4	0	0.03	0	1	0	150	9	1.2	0.8;
	332	1	30.03	10.9	0	1.45	0	1	0	110	19	1.2	0.8;
	333	1	524.5	43	0	6.85	0	1	0	220	5	1.2	0.8;
	334	1	129.9	18.5	0	0.38	0	1	0	154	1	1.2	0.8;
	335	1	0	0	0	1.92	0	1	0	110	18	1.2	0.8;
	336	1	4.4	0	0	0.51	0	1	0	110	18	1.2	0.8;
	337	1	9.22	1.2	0	0.8	0	1	0	110	19	1.2	0.8;
	338	2	0	0	0	0	0	1	0	220	5	1.2	0.8;
	339	1	0	0	0	0.14	0	1	0	220	6	1.2	0.8;
	340	1	186.6	56.6	0	30.24	0	1	0	380	20	1.2	0.8;
	341	1	0	0	0	0.81	0	1	0	110	21	1.2	0.8;
	342	1	35.41	20.3	0	10.07	0	1	0	220	6	1.2	0.8;
	343	1	3.2	1.2	0	0.69	0	1	0	110	19	1.2	0.8;
	344	1	372.8	147.5	0	27.73	0	1	0	150	8	1.2	0.8;
	345	1	0	0	0	-0.24	0	1	0	220	11	1.2	0.8;
	346	1	197.5	48.3	0	0.71	0	1	0	220	5	1.2	0.8;
	347	2	0	0	0	0	0	1	0	154	1	1.2	0.8;
	348	2	0	0	0	0	0	1	0	380	6	1.2	0.8;
	349	1	0	0	0	15.15	0	1	0	150	8	1.2	0.8;
	350	1	110.4	26.2	0	5.62	0	1	0	220	5	1.2	0.8;
	351	1	-0.15	-1.93	0	0	0	1	0	220	8	1.2	0.8;
	352	2	0	0	0	0	0	1	0	380	5	1.2	0.8;
	353	1	0	0	0	14.6	0	1	0	220	12	1.2	0.8;
	354	1	0	0	0	8.67	0	1	0	380	1	1.2	0.8;
	355	1	-4.86	-2.15	0	0.31	0	1	0	110	18	1.2	0.8;
	356	1	141.1	2.1	0	4.78	0	1	0	220	7	1.2	0.8;
	357	1	52.96	32.8	0	14.14	0	1	0	150	9	1.2	0.8;
	358	1	13.9	1.9	0	0.62	0	1	0	154	1	1.2	0.8;
	359	1	0	0	0	2.37	0	1	0	220	1	1.2	0.8;
	360	1	35.54	11.5	0	3.65	0	1	0	110	8	1.2	0.8;
	361	2	0	0	0	0	0	1	0	380	13	1.2	0.8;
	362	1	48.92	14.52	0	2.85	0	1	0	150	1	1.2	0.8;
	363	1	0	0	0	26.52	0	1	0	150	9	1.2	0.8;
	364	1	10.01	4	0	8.11	0	1	0	220	6	1.2	0.8;
	365	1	0	0	0	0.82	0	1	0	150	9	1.2	0.8;
	366	2	0	0	0	0	0	1	0	400	1	1.2	0.8;
	367	1	65.17	-51.5	0	4.85	0	1	0	220	5	1.2	0.8;
	368	1	0	0	0	7.11	0	1	0	220	6	1.2	0.8;
	369	1	0	0	0	3.78	0	1	0	220	8	1.2	0.8;
	370	1	56.76	23.2	0	0.49	0	1	0	150	8	1.2	0.8;
	371	1	0	0	0	11.44	0	1	0	154	1	1.2	0.8;
	372	2	0	0	0	0	0	1	0	380	14	1.2	0.8;
	373	1	0	0	0	0.16	0	1	0	150	9	1.2	0.8;
	374	1	0	0	0	2.27	0	1	0	154	1	1.2	0.8;
	375	1	0	0	0	1.61	0	1	0	220	3	1.2	0.8;
	376	1	0.01	0	0	35.09	0	1	0	380	6	1.2	0.8;
	377	1	-0.18	-1	0	0	0	1	0	150	8	1.2	0.8;
	378	1	221.35	51.8	0	8.81	0	1	0	220	13	1.2	0.8;
	379	1	23.83	7.9	0	0.72	0	1	0	110	21	1.2	0.8;
	380	1	-95.71	-2.8	0	7.25	0	1	0	220	10	1.2	0.8;
	381	1	44.05	0	0	0	0	1	0	150	7	1.2	0.8;
	382	2	0	0	0	0	0	1	0	220	7	1.2	0.8;
	383	1	19.02	11.5	0	0	0	1	0	150	9	1.2	0.8;
	384	1	0	0	0	0.3	0	1	0	150	9	1.2	0.8;
	385	1	0	0	0	105.84	0	1	0	380	4	1.2	0.8;
	386	1	0	0	0	28.09	0	1	0	380	3	1.2	0.8;
	387	1	-0.19	-4.38	0	0	0	1	0	150	8	1.2	0.8;
	388	1	0	0	0	7.15	0	1	0	220	3	1.2	0.8;
	389	2	0	0	0	0	0	1	0	150	10	1.2	0.8;
	390	1	27.93	10.1	0	0.43	0	1	0	110	19	1.2	0.8;
	391	1	34.94	21.6	0	0.18	0	1	0	150	9	1.2	0.8;
	392	1	134.1	34.2	0	0.75	0	1	0	150	8	1.2	0.8;
	393	1	17.72	5.9	0	0.32	0	1	0	220	21	1.2	0.8;
	394	2	0	0	0	0	0	1	0	380	3	1.2	0.8;
	395	1	0	0	0	7.85	0	1	0	380	8	1.2	0.8;
	396	1	0	0	0	0	0	1	0	150	9	1.2	0.8;
	397	1	77.79	-40.8	0	12.06	0	1	0	220	3	1.2	0.8;
	398	1	11.91	3.8	0	0.46	0	1	0	110	18	1.2	0.8;
	399	1	5.01	2	0	0.13	0	1	0	220	6	1.2	0.8;
	400	1	-19.66	-10.83	0	0.06	0	1	0	110	18	1.2	0.8;
	401	1	56.5	36.29	0	3.08	0	1	0	220	5	1.2	0.8;
	402	1	0	0	0	16.38	0	1	0	220	6	1.2	0.8;
	403	1	0	0	0	7.33	0	1	0	220	18	1.2	0.8;
	404	1	3.81	0.24	0	0.23	0	1	0	110	18	1.2	0.8;
	405	1	254.7	79.4	0	9.43	0	1	0	380	6	1.2	0.8;
	406	2	0	0	0	0	0	1	0	110	12	1.2	0.8;
	407	1	69.5	9.9	0	98.63	0	1	0	400	1	1.2	0.8;
	408	1	129.1	7.4	0	0.04	0	1	0	220	5	1.2	0.8;
	409	2	0	0	0	0	0	1	0	154	1	1.2	0.8;
	410	1	170.89	50.38	0	6.44	0	1	0	220	5	1.2	0.8;
	411	2	0	0	0	0	0	1	0	110	22	1.2	0.8;
	412	1	26.4	3.8	0	4.65	0	1	0	154	1	1.2	0.8;
	413	2	0	0	0	0	0	1	0	220	5	1.2	0.8;
	414	1	20.52	10.3	0	0.04	0	1	0	150	9	1.2	0.8;
	415	1	4.71	0.7	0	11.39	0	1	0	220	4	1.2	0.8;
	416	1	70.68	13.5	0	6.96	0	1	0	220	5	1.2	0.8;
	417	1	187.19	1.8	0	20.47	0	1	0	220	3	1.2	0.8;
	418	1	24.43	8.7	0	0.17	0	1	0	110	15	1.2	0.8;
	419	1	8.81	3.2	0	1.12	0	1	0	110	19	1.2	0.8;
	420	1	0	0	0	0	0	1	0	380	8	1.2	0.8;
	421	1	33.74	20.9	0	1.1	0	1	0	150	9	1.2	0.8;
	422	1	35.84	12.5	0	0.26	0	1	0	110	19	1.2	0.8;
	423	2	0	0	0	0	0	1	0	154	1	1.2	0.8;
	424	2	0	0	0	0	0	1	0	380	3	1.2	0.8;
	425	1	0	0	0	2.72	0	1	0	380	1	1.2	0.8;
	426	1	123.1	6.5	0	3.25	0	1	0	220	5	1.2	0.8;
	427	1	0	0	0	1.24	0	1	0	380	1	1.2	0.8;
	428	1	0.1	0	0	0.57	0	1	0	110	18	1.2	0.8;
	429	1	26.93	-22.4	0	4.95	0	1	0	220	4	1.2	0.8;
	430	1	29.03	9	0	0.56	0	1	0	110	21	1.2	0.8;
	431	1	188.42	106.93	0	4.89	0	1	0	220	13	1.2	0.8;
	432	1	0	0	0	68.52	0	1	0	380	5	1.2	0.8;
	433	2	0	0	0	0	0	1	0	380	3	1.2	0.8;
	434	2	0	0	0	0	0	1	0	154	1	1.2	0.8;
	435	1	33.14	11.6	0	0.22	0	1	0	110	19	1.2	0.8;
	436	1	18.3	8.2	0	35.42	0	1	0	380	9	1.2	0.8;
	437	1	69.08	24	0	1	0	1	0	220	6	1.2	0.8;
	438	2	0	0	0	0	0	1	0	220	3	1.2	0.8;
	439	2	0	0	0	0	0	1	0	220	3	1.2	0.8;
	440	2	0	0	0	0	0	1	0	220	4	1.2	0.8;
	441	1	0	0	0	27.89	0	1	0	380	10	1.2	0.8;
	442	2	0	0	0	0	0	1	0	220	4	1.2	0.8;
	443	1	-12.61	4.1	0	1.83	0	1	0	150	9	1.2	0.8;
	444	1	0	0	0	2.45	0	1	0	220	5	1.2	0.8;
	445	1	36.74	10.3	0	8.1	0	1	0	220	4	1.2	0.8;
	446	1	100.53	43.37	0	0	0	1	0	110	24	1.2	0.8;
	447	2	0	0	0	0	0	1	0	110	18	1.2	0.8;
	448	1	0	0	0	0	0	1	0	150	9	1.2	0.8;
	449	1	0	0	0	29.42	0	1	0	380	5	1.2	0.8;
	450	1	42.04	43	0	0.02	0	1	0	150	9	1.2	0.8;
	451	1	0	0	0	22.71	0	1	0	380	1	1.2	0.8;
	452	2	0	0	0	0	0	1	0	110	22	1.2	0.8;
	453	2	0	0	0	0	0	1	0	380	5	1.2	0.8;
	454	1	23.7	3.4	0	8.13	0	1	0	154	1	1.2	0.8;
	455	1	274.32	5.66	0	13.24	0	1	0	220	5	1.2	0.8;
	456	2	0	0	0	0	0	1	0	110	18	1.2	0.8;
	457	1	1.8	0.7	0	0.18	0	1	0	110	19	1.2	0.8;
	458	1	0	0	0	35.26	0	1	0	380	11	1.2	0.8;
	459	1	97	40.3	0	16.79	0	1	0	220	3	1.2	0.8;
	460	1	0	0	0	0.88	0	1	0	110	18	1.2	0.8;
	461	1	0	0	0	0	0	1	0	150	9	1.2	0.8;
	462	1	0	0	0	0	0	1	0	150	9	1.2	0.8;
	463	1	24.33	7.6	0	1.18	0	1	0	110	18	1.2	0.8;
	464	1	44.75	0.9	0	6.67	0	1	0	220	7	1.2	0.8;
	465	1	0	0	0	2.57	0	1	0	220	21	1.2	0.8;
	466	1	0	0	0	0	0	1	0	150	9	1.2	0.8;
	467	1	40.5	5.7	0	3.9	0	1	0	154	1	1.2	0.8;
	468	1	9.01	6.8	0	0.44	0	1	0	110	18	1.2	0.8;
	469	1	81.09	48	0	0.03	0	1	0	150	9	1.2	0.8;
	470	1	0	0	0	0.43	0	1	0	150	9	1.2	0.8;
	471	1	0	0	0	1.47	0	1	0	220	6	1.2	0.8;
	472	1	336.2	131.6	0	64.01	0	1	0	150	8	1.2	0.8;
	473	1	-22.95	-3.72	0	14.34	0	1	0	220	4	1.2	0.8;
	474	1	0	0	0	0.97	0	1	0	110	1	1.2	0.8;
	475	1	0	0	0	9.41	0	1	0	380	3	1.2	0.8;
	476	1	67.3	94.8	0	7.96	0	1	0	220	3	1.2	0.8;
	477	1	0	0	0	70.37	0	1	0	380	4	1.2	0.8;
	478	1	0	0	0	33.23	0	1	0	380	3	1.2	0.8;
	479	1	16.62	3.1	0	1.14	0	1	0	110	18	1.2	0.8;
	480	1	5.81	1.1	0	4.02	0	1	0	110	19	1.2	0.8;
	481	1	0	0	0	17.44	0	1	0	220	4	1.2	0.8;
	482	1	0	0	0	1.05	0	1	0	110	18	1.2	0.8;
	483	1	57.26	15.6	0	3.43	0	1	0	220	4	1.2	0.8;
	484	2	0	0	0	0	0	1	0	220	3	1.2	0.8;
	485	1	0	0	0	4.9	0	1	0	380	6	1.2	0.8;
	486	1	7.01	2	0	0.44	0	1	0	150	8	1.2	0.8;
	487	1	87.8	12.5	0	0.38	0	1	0	154	1	1.2	0.8;
	488	1	6.61	2.92	0	1.17	0	1	0	220	14	1.2	0.8;
	489	2	0	0	0	0	0	1	0	220	4	1.2	0.8;
	490	1	20.52	4	0	2.77	0	1	0	220	5	1.2	0.8;
	491	2	0	0	0	0	0	1	0	380	3	1.2	0.8;
	492	1	68.18	22	0	2.42	0	1	0	110	22	1.2	0.8;
	493	1	23.23	7.6	0	0.76	0	1	0	110	21	1.2	0.8;
	494	1	0	0	0	0	0	1	0	150	9	1.2	0.8;
	495	1	181.7	51	0	73.49	0	1	0	380	3	1.2	0.8;
	496	1	0	0	0	10.04	0	1	0	150	8	1.2	0.8;
	497	1	40	5.7	0	2.06	0	1	0	154	1	1.2	0.8;
	498	1	31.23	11.3	0	0.33	0	1	0	110	19	1.2	0.8;
	499	1	287.31	-5.58	0	19.9	0	1	0	380	13	1.2	0.8;
	500	1	144.4	35.5	0	7.66	0	1	0	220	5	1.2	0.8;
	501	1	0	0	0	0.25	0	1	0	110	3	1.2	0.8;
	502	1	0	0	0	1.96	0	1	0	220	5	1.2	0.8;
	503	1	4.1	-607	0	85.98	0	1	0	380	3	1.2	0.8;
	504	1	18.62	6.2	0	1.07	0	1	0	110	21	1.2	0.8;
	505	2	0	0	0	0	0	1	0	154	1	1.2	0.8;
	506	1	0	0	0	0.4	0	1	0	380	5	1.2	0.8;
	507	1	23.43	8.5	0	0.33	0	1	0	110	19	1.2	0.8;
	508	1	23.92	7.75	0	1.91	0	1	0	110	18	1.2	0.8;
	509	1	77.29	7	0	17.6	0	1	0	220	4	1.2	0.8;
	510	1	0	0	0	1.5	0	1	0	220	6	1.2	0.8;
	511	2	0	0	0	0	0	1	0	380	3	1.2	0.8;
	512	1	10.11	2.8	0	1.01	0	1	0	110	18	1.2	0.8;
	513	1	57.46	17.1	0	1.61	0	1	0	220	5	1.2	0.8;
	514	1	9.61	3.1	0	0.77	0	1	0	110	12	1.2	0.8;
	515	2	0	0	0	0	0	1	0	220	11	1.2	0.8;
	516	2	0	0	0	0	0	1	0	220	5	1.2	0.8;
	517	1	7.71	16.7	0	3.59	0	1	0	150	9	1.2	0.8;
	518	2	0	0	0	0	0	1	0	380	14	1.2	0.8;
	519	1	207.2	9.4	0	8.77	0	1	0	220	4	1.2	0.8;
	520	1	118.5	20.4	0	2.57	0	1	0	220	5	1.2	0.8;
	521	1	14.72	5.3	0	0.76	0	1	0	110	19	1.2	0.8;
	522	1	11.61	7.2	0	28.77	0	1	0	150	9	1.2	0.8;
	523	1	189.9	74.7	0	26.2	0	1	0	150	8	1.2	0.8;
	524	2	0	0	0	0	0	1	0	154	1	1.2	0.8;
	525	1	36.54	27.4	0	0.15	0	1	0	220	3	1.2	0.8;
	526	1	176.7	25.6	0	2.01	0	1	0	220	6	1.2	0.8;
	527	1	277.7	45.4	0	0.7	0	1	0	220	4	1.2	0.8;
	528	1	0	0	0	3.46	0	1	0	220	6	1.2	0.8;
	529	1	0	0	0	28.16	0	1	0	380	1	1.2	0.8;
	530	1	25	3.6	0	4.73	0	1	0	154	1	1.2	0.8;
	531	1	0	0	0	47.4	0	1	0	380	1	1.2	0.8;
	532	1	0	0	0	1.98	0	1	0	220	3	1.2	0.8;
	533	1	16.52	3.8	0	0.98	0	1	0	110	18	1.2	0.8;
	534	1	118.1	16.8	0	2.94	0	1	0	154	1	1.2	0.8;
	535	1	11.51	3.8	0	1.21	0	1	0	110	12	1.2	0.8;
	536	1	87.8	-1.4	0	36.05	0	1	0	380	10	1.2	0.8;
	537	1	27.53	17	0	0.76	0	1	0	150	9	1.2	0.8;
	538	1	21.02	13	0	1.17	0	1	0	150	9	1.2	0.8;
	539	1	57.96	18.9	0	14.91	0	1	0	150	8	1.2	0.8;
	540	1	166.9	86.1	0	4.06	0	1	0	220	3	1.2	0.8;
	541	2	0	0	0	0	0	1	0	154	1	1.2	0.8;
	542	1	2	0.7	0	0.02	0	1	0	110	19	1.2	0.8;
	543	1	72	10.3	0	6.24	0	1	0	154	1	1.2	0.8;
	544	1	79.69	39.6	0	18.83	0	1	0	380	10	1.2	0.8;
	545	1	0	0	0	8.48	0	1	0	220	18	1.2	0.8;
	546	1	0	0	0	29.89	0	1	0	150	9	1.2	0.8;
	547	1	30.03	14	0	0.61	0	1	0	220	6	1.2	0.8;
	548	1	30.93	8.9	0	0.45	0	1	0	110	8	1.2	0.8;
	549	1	0	0	0	5.15	0	1	0	220	5	1.2	0.8;
	550	1	0	0	0	10	0	1	0	220	4	1.2	0.8;
	551	1	17.72	5.9	0	0.52	0	1	0	110	21	1.2	0.8;
	552	1	180.8	90.8	0	2.42	0	1	0	150	10	1.2	0.8;
	553	1	0	0	0	0.55	0	1	0	154	1	1.2	0.8;
	554	1	0	0	0	1.97	0	1	0	220	5	1.2	0.8;
	555	1	0	0	0	7.35	0	1	0	220	11	1.2	0.8;
	556	1	16.52	9	0	1.17	0	1	0	220	5	1.2	0.8;
	557	1	0	0	0	12.14	0	1	0	220	19	1.2	0.8;
	558	1	-0.18	-3.57	0	0	0	1	0	150	8	1.2	0.8;
	559	1	42.25	16.6	0	0	0	1	0	150	8	1.2	0.8;
	560	1	3.8	1.3	0	0.65	0	1	0	110	18	1.2	0.8;
	561	1	0	0	0	0.32	0	1	0	220	5	1.2	0.8;
	562	1	0	0	0	0.48	0	1	0	220	14	1.2	0.8;
	563	1	0	0	0	0.55	0	1	0	150	9	1.2	0.8;
	564	2	0	0	0	0	0	1	0	220	5	1.2	0.8;
	565	1	198.4	32.7	0	31.82	0	1	0	220	6	1.2	0.8;
	566	1	5.81	3.8	0	0.94	0	1	0	110	18	1.2	0.8;
	567	1	0	0	0	14.5	0	1	0	380	1	1.2	0.8;
	568	1	20.22	7.3	0	0.59	0	1	0	110	19	1.2	0.8;
	569	1	0	0	0	35.36	0	1	0	380	20	1.2	0.8;
	570	1	47.95	29.7	0	1.59	0	1	0	150	9	1.2	0.8;
	571	1	120.63	56.2	0	3	0	1	0	220	3	1.2	0.8;
	572	1	27.13	8.9	0	1.37	0	1	0	110	19	1.2	0.8;
	573	1	10.71	3.5	0	0.82	0	1	0	110	12	1.2	0.8;
	574	1	82.89	26.8	0	0.65	0	1	0	110	19	1.2	0.8;
	575	1	0	0	0	0.67	0	1	0	220	5	1.2	0.8;
	576	1	108.6	38.7	0	0	0	1	0	110	18	1.2	0.8;
	577	1	-0.13	-1	0	0	0	1	0	220	8	1.2	0.8;
	578	2	0	0	0	0	0	1	0	220	13	1.2	0.8;
	579	1	17.32	6.6	0	16.52	0	1	0	380	4	1.2	0.8;
	580	1	322.7	11.9	0	10.28	0	1	0	380	6	1.2	0.8;
	581	1	48.8	6.9	0	0.12	0	1	0	154	1	1.2	0.8;
	582	1	51.16	18.2	0	5.23	0	1	0	220	7	1.2	0.8;
	583	2	0	0	0	0	0	1	0	220	5	1.2	0.8;
	584	1	151.2	72.4	0	4.57	0	1	0	380	3	1.2	0.8;
	585	1	21.12	8.3	0	4.26	0	1	0	150	8	1.2	0.8;
	586	1	9.51	3.2	0	0.34	0	1	0	110	21	1.2	0.8;
	587	2	0	0	0	0	0	1	0	220	13	1.2	0.8;
	588	1	1.5	0.8	0	0.55	0	1	0	110	18	1.2	0.8;
	589	1	27.03	9.8	0	1.01	0	1	0	110	19	1.2	0.8;
	590	2	0	0	0	0	0	1	0	380	3	1.2	0.8;
	591	1	0	0	0	0.56	0	1	0	110	21	1.2	0.8;
	592	1	0	0	0	0.27	0	1	0	220	3	1.2	0.8;
	593	1	0	0	0	29.2	0	1	0	380	8	1.2	0.8;
	594	1	67.57	17	0	5.75	0	1	0	220	5	1.2	0.8;
	595	1	47.55	5.3	0	7.59	0	1	0	220	4	1.2	0.8;
	596	1	24.83	7.6	0	0.23	0	1	0	110	18	1.2	0.8;
	597	1	33.34	15.7	0	64.15	0	1	0	380	4	1.2	0.8;
	598	1	0	0	0	0.82	0	1	0	150	9	1.2	0.8;
	599	1	0	0	0	37.64	0	1	0	220	24	1.2	0.8;
	600	1	0	0	0	8.72	0	1	0	380	3	1.2	0.8;
	601	1	140.6	42.6	0	5.71	0	1	0	220	5	1.2	0.8;
	602	1	110.8	-8.8	0	3.15	0	1	0	220	4	1.2	0.8;
	603	1	48.9	28.6	0	98.81	0	1	0	380	9	1.2	0.8;
	604	1	33.24	4.4	0	24.54	0	1	0	380	5	1.2	0.8;
	605	1	23.4	3.3	0	1.91	0	1	0	154	1	1.2	0.8;
	606	1	0	0	0	19.56	0	1	0	380	3	1.2	0.8;
	607	1	0	0	0	7.06	0	1	0	330	24	1.2	0.8;
	608	1	150.9	10.4	0	4.77	0	1	0	220	5	1.2	0.8;
	609	1	0	0	0	5.67	0	1	0	220	5	1.2	0.8;
	610	1	0	0	0	0.91	0	1	0	150	10	1.2	0.8;
	611	1	0	0	0	0.9	0	1	0	380	7	1.2	0.8;
	612	1	0	0	0	0.52	0	1	0	110	3	1.2	0.8;
	613	1	181.1	25.8	0	1.1	0	1	0	154	1	1.2	0.8;
	614	1	18.5	3.7	0	0.01	0	1	0	150	9	1.2	0.8;
	615	2	0	0	0	0	0	1	0	220	5	1.2	0.8;
	616	2	0	0	0	0	0	1	0	220	5	1.2	0.8;
	617	1	-0.92	-4.99	0	1.86	0	1	0	110	18	1.2	0.8;
	618	2	0	0	0	0	0	1	0	380	4	1.2	0.8;
	619	1	72.88	14.4	0	2.96	0	1	0	220	5	1.2	0.8;
	620	1	15.42	5.8	0	0.57	0	1	0	110	18	1.2	0.8;
	621	1	21.42	8.1	0	7.38	0	1	0	220	4	1.2	0.8;
	622	1	0	0	0	11.57	0	1	0	380	3	1.2	0.8;
	623	1	36.1	5.2	0	11.12	0	1	0	154	1	1.2	0.8;
	624	1	111.4	36.5	0	70.21	0	1	0	380	3	1.2	0.8;
	625	1	0	0	0	4.43	0	1	0	220	1	1.2	0.8;
	626	1	0	0	0	0	0	1	0	150	9	1.2	0.8;
	627	1	116.8	60.3	0	9.09	0	1	0	150	9	1.2	0.8;
	628	2	0	0	0	0	0	1	0	220	10	1.2	0.8;
	629	1	177.2	32.3	0	6.57	0	1	0	220	3	1.2	0.8;
	630	1	0	0	0	17.07	0	1	0	380	3	1.2	0.8;
	631	1	0	0	0	0.71	0	1	0	150	9	1.2	0.8;
	632	1	0	0	0	0.23	0	1	0	150	9	1.2	0.8;
	633	1	2.5	0	0	0.96	0	1	0	110	18	1.2	0.8;
	634	1	0	0	0	104.15	0	1	0	400	1	1.2	0.8;
	635	1	0	0	0	4.96	0	1	0	220	3	1.2	0.8;
	636	2	0	0	0	0	0	1	0	110	19	1.2	0.8;
	637	2	0	0	0	0	0	1	0	154	1	1.2	0.8;
	638	1	181.41	16.52	0	4.07	0	1	0	220	13	1.2	0.8;
	639	2	0	0	0	0	0	1	0	220	5	1.2	0.8;
	640	1	102	26.6	0	2.31	0	1	0	220	3	1.2	0.8;
	641	1	45.32	18.5	0	0.74	0	1	0	220	5	1.2	0.8;
	642	2	0	0	0	0	0	1	0	380	4	1.2	0.8;
	643	1	15.52	6.3	0	0.6	0	1	0	150	8	1.2	0.8;
	644	1	192.3	27.4	0	30.64	0	1	0	400	1	1.2	0.8;
	645	1	26.33	9.5	0	1.85	0	1	0	110	19	1.2	0.8;
	646	1	-0.59	-0.83	0	5.79	0	1	0	150	9	1.2	0.8;
	647	1	48.05	15.8	0	6.08	0	1	0	150	1	1.2	0.8;
	648	2	0	0	0	0	0	1	0	220	3	1.2	0.8;
	649	1	40.94	19.2	0	5.2	0	1	0	220	4	1.2	0.8;
	650	1	17.22	4.4	0	1.71	0	1	0	110	8	1.2	0.8;
	651	1	62.46	7.15	0	10.06	0	1	0	150	1	1.2	0.8;
	652	1	0	0	0	5.12	0	1	0	220	3	1.2	0.8;
	653	1	10.31	2.3	0	1.11	0	1	0	110	18	1.2	0.8;
	654	1	205.6	74	0	5.56	0	1	0	220	7	1.2	0.8;
	655	1	9.7	1.4	0	6.56	0	1	0	154	1	1.2	0.8;
	656	1	-0.15	-1.93	0	0	0	1	0	220	8	1.2	0.8;
	657	1	65.27	30.9	0	3.1	0	1	0	220	3	1.2	0.8;
	658	1	258.4	66.7	0	5.87	0	1	0	220	5	1.2	0.8;
	659	1	0	0	0	73.98	0	1	0	380	2	1.2	0.8;
	660	1	584.3	166.3	0	48.16	0	1	0	380	6	1.2	0.8;
	661	1	0	0	0	0.6	0	1	0	380	5	1.2	0.8;
	662	1	0	0	0	4.14	0	1	0	380	8	1.2	0.8;
	663	1	0	0	0	12.89	0	1	0	220	21	1.2	0.8;
	664	1	38.04	11.7	0	0.18	0	1	0	110	3	1.2	0.8;
	665	1	0	0	0	7.2	0	1	0	220	19	1.2	0.8;
	666	1	-5.61	-2.79	0	150.93	0	1	0	380	5	1.2	0.8;
	667	1	0	0	0	2.76	0	1	0	220	11	1.2	0.8;
	668	1	48.8	6.9	0	5.14	0	1	0	154	1	1.2	0.8;
	669	1	0	0	0	29.29	0	1	0	150	9	1.2	0.8;
	670	1	5.51	17.7	0	0.58	0	1	0	150	9	1.2	0.8;
	671	1	0	0	0	0	0	1	0	150	9	1.2	0.8;
	672	2	0	0	0	0	0	1	0	380	6	1.2	0.8;
	673	1	0	0	0	12.75	0	1	0	380	3	1.2	0.8;
	674	1	0	0	0	65.82	0	1	0	380	1	1.2	0.8;
	675	1	5.11	-0.1	0	3.73	0	1	0	110	18	1.2	0.8;
	676	1	109.3	35.4	0	1.91	0	1	0	150	8	1.2	0.8;
	677	1	30.83	10.8	0	2.59	0	1	0	110	18	1.2	0.8;
	678	1	232.1	89.8	0	0.09	0	1	0	220	5	1.2	0.8;
	679	1	0	0	0	3.94	0	1	0	220	1	1.2	0.8;
	680	1	79.59	50.5	0	14.31	0	1	0	380	3	1.2	0.8;
	681	1	0	0	0	14.54	0	1	0	380	1	1.2	0.8;
	682	2	0	0	0	0	0	1	0	220	5	1.2	0.8;
	683	1	169.8	55.5	0	3.3	0	1	0	220	3	1.2	0.8;
	684	1	60.07	28	0	4.13	0	1	0	220	6	1.2	0.8;
	685	1	0	0	0	47.77	0	1	0	380	6	1.2	0.8;
	686	2	0	0	0	0	0	1	0	220	4	1.2	0.8;
	687	1	0	0	0	5.6	0	1	0	220	5	1.2	0.8;
	688	1	-3.4	-1.3	0	2.27	0	1	0	220	7	1.2	0.8;
	689	1	124.8	23.5	0	5.84	0	1	0	220	16	1.2	0.8;
	690	1	22.42	8.2	0	0.53	0	1	0	110	3	1.2	0.8;