function mpc = case13659pegase_OPF2
%CASE13659PEGASE_OPF2

%% MATPOWER Case Format : Version 2
mpc.version = '2';

%%-----  Power Flow Data  -----%%
%% system MVA base
mpc.baseMVA = 100;

%% bus data
%	bus_i	type	Pd	Qd	Gs	Bs	area	Vm	Va	baseKV	zone	Vmax	Vmin
mpc.bus = [
	1	3	0	0	0	0	0	1	0	20	6	1.2	0.8;
	2	1	72.68	45	0	6.61	0	1	0	150	9	1.2	0.8;
	3	1	378.4	98.5	0	16.61	0	1	0	220	6	1.2	0.8;
	4	1	134	19.1	0	0.08	0	1	0	154	1	1.2	0.8;
	5	1	151	48.8	0	4.69	0	1	0	220	5	1.2	0.8;
	6	1	171.41	23.4	0	2.1	0	1	0	220	5	1.2	0.8;
	7	1	45.95	14	0	13.34	0	1	0	220	6	1.2	0.8;
	8	1	343.4	53.1	0	36.83	0	1	0	380	6	1.2	0.8;
	9	1	0	0	0	75.08	0	1	0	380	5	1.2	0.8;
	10	1	31.03	10.3	0	0.65	0	1	0	110	21	1.2	0.8;
	11	1	0	0	0	3.41	0	1	0	154	1	1.2	0.8;
	12	2	0	0	0	0	0	1	0	20	3	1.2	0.8;
	13	1	14.3	2	0	1.91	0	1	0	154	1	1.2	0.8;
	14	1	134	24.7	0	12.44	0	1	0	220	5	1.2	0.8;
	15	1	0	0	0	0	0	1	0	150	9	1.2	0.8;
	16	1	-6.11	2	0	0.47	0	1	0	150	9	1.2	0.8;
	17	1	-22.74	-8.32	0	6.5	0	1	0	220	6	1.2	0.8;
	18	2	0	0	0	0	0	1	0	20	14	1.2	0.8;
	19	1	59.67	26.7	0	12.84	0	1	0	220	4	1.2	0.8;
	20	1	30.6	4.3	0	5.15	0	1	0	154	1	1.2	0.8;
	21	1	0	0	0	-0.2	0	1	0	380	6	1.2	0.8;
	22	1	67.67	12.1	0	2.18	0	1	0	220	3	1.2	0.8;
	23	1	0	0	0	20.6	0	1	0	380	3	1.2	0.8;
	24	1	25.33	7.5	0	2.39	0	1	0	110	12	1.2	0.8;
	25	1	1.4	0.2	0	4.93	0	1	0	154	1	1.2	0.8;
	26	1	161.2	39.3	0	30.71	0	1	0	220	5	1.2	0.8;
	27	1	0	0	0	0.85	0	1	0	220	5	1.2	0.8;
	28	1	19.62	7.1	0	1.15	0	1	0	110	19	1.2	0.8;
	29	2	0	0	0	0	0	1	0	20	18	1.2	0.8;
	30	1	31.94	8.8	0	0.73	0	1	0	110	22	1.2	0.8;
	31	1	0	0	0	0.31	0	1	0	220	3	1.2	0.8;
	32	1	167.3	54.8	0	110.54	0	1	0	380	5	1.2	0.8;
	33	2	0	0	0	0	0	1	0	20	4	1.2	0.8;
	34	1	0	0	0	14.82	0	1	0	380	13	1.2	0.8;
	35	1	0	0	0	0	0	1	0	150	9	1.2	0.8;
	36	1	152.9	49.4	0	27.65	0	1	0	380	5	1.2	0.8;
	37	1	0	0	0	0.56	0	1	0	150	9	1.2	0.8;
	38	1	69.68	43.2	0	6.3	0	1	0	150	9	1.2	0.8;
	39	2	0	0	0	0	0	1	0	20	9	1.2	0.8;
	40	1	0	0	0	37.54	0	1	0	220	4	1.2	0.8;
	41	1	0	0	0	0.25	0	1	0	220	4	1.2	0.8;
	42	2	0	0	0	0	0	1	0	11	1	1.2	0.8;
	43	1	13.51	4.9	0	1.8	0	1	0	110	19	1.2	0.8;
	44	1	10.51	3.5	0	0.31	0	1	0	110	12	1.2	0.8;
	45	2	0	0	0	0	0	1	0	20	4	1.2	0.8;
	46	1	0	0	0	15.34	0	1	0	220	19	1.2	0.8;
	47	1	9.21	2.6	0	2	0	1	0	110	18	1.2	0.8;
	48	1	42.75	12.8	0	13.3	0	1	0	220	8	1.2	0.8;
	49	1	0	0	0	0.32	0	1	0	150	10	1.2	0.8;
	50	1	16.02	4.54	0	0.1	0	1	0	110	23	1.2	0.8;
	51	2	0	0	0	0	0	1	0	14.4	1	1.2	0.8;
	52	1	27.9	4	0	4.23	0	1	0	154	1	1.2	0.8;
	53	1	20.82	7.9	0	26.89	0	1	0	380	4	1.2	0.8;
	54	2	0	0	0	0	0	1	0	20	14	1.2	0.8;
	55	1	0	0	0	7.27	0	1	0	220	5	1.2	0.8;
	56	1	10.11	3.7	0	0.81	0	1	0	110	19	1.2	0.8;
	57	1	10.01	2.7	0	1.14	0	1	0	110	18	1.2	0.8;
	58	1	6.31	0	0	0.67	0	1	0	110	18	1.2	0.8;
	59	1	2.9	0.9	0	0.6	0	1	0	110	15	1.2	0.8;
	60	1	0	0	0	17.76	0	1	0	220	6	1.2	0.8;
	61	1	0	0	0	0.43	0	1	0	380	2	1.2	0.8;
	62	2	0	0	0	0	0	1	0	20	5	1.2	0.8;
	63	2	0	0	0	0	0	1	0	20	5	1.2	0.8;
	64	1	151.8	48.3	0	5.53	0	1	0	220	4	1.2	0.8;
	65	1	127.6	31.8	0	20.51	0	1	0	150	8	1.2	0.8;
	66	2	0	0	0	0	0	1	0	20	22	1.2	0.8;
	67	1	0	0	0	0.84	0	1	0	110	21	1.2	0.8;
	68	2	0	0	0	0	0	1	0	20	4	1.2	0.8;
	69	2	0	0	0	0	0	1	0	20	4	1.2	0.8;
	70	1	110.5	-26.8	0	16.37	0	1	0	220	6	1.2	0.8;
	71	1	0	0	0	0	0	1	0	20	5	1.2	0.8;
	72	1	0	0	0	0	0	1	0	20	5	1.2	0.8;
	73	1	0	0	0	1.23	0	1	0	220	3	1.2	0.8;
	74	1	0	0	0	0	0	1	0	20	5	1.2	0.8;
	75	1	0	0	0	0	0	1	0	20	5	1.2	0.8;
	76	1	0	0	0	0	0	1	0	20	5	1.2	0.8;
	77	2	0	0	0	0	0	1	0	20	5	1.2	0.8;
	78	2	0	0	0	0	0	1	0	20	5	1.2	0.8;
	79	2	0	0	0	0	0	1	0	20	5	1.2	0.8;
	80	1	140	79.7	0	6.5	0	1	0	220	3	1.2	0.8;
	81	1	21.6	3	0	3.54	0	1	0	154	1	1.2	0.8;
	82	1	0	0	0	2.31	0	1	0	380	5	1.2	0.8;
	83	1	119.2	20.7	0	3.31	0	1	0	220	5	1.2	0.8;
	84	1	26.43	9.9	0	9.57	0	1	0	110	22	1.2	0.8;
	85	1	0.24	-1.66	0	0.65	0	1	0	110	18	1.2	0.8;
	86	2	0	0	0	0	0	1	0	20	6	1.2	0.8;
	87	1	0	0	0	0	0	1	0	20	6	1.2	0.8;
	88	1	0	0	0	0	0	1	0	20	6	1.2	0.8;
	89	1	0	0	0	58.57	0	1	0	380	3	1.2	0.8;
	90	1	0	0	0	1.34	0	1	0	110	18	1.2	0.8;
	91	1	187.9	110.2	0	21.25	0	1	0	380	3	1.2	0.8;
	92	1	14.92	5.5	0	1.31	0	1	0	110	15	1.2	0.8;
	93	1	-18.52	6.1	0	0.79	0	1	0	150	9	1.2	0.8;
	94	2	0	0	0	0	0	1	0	11	1	1.2	0.8;
	95	1	4.61	1.7	0	2.32	0	1	0	110	19	1.2	0.8;
	96	2	0	0	0	0	0	1	0	20	4	1.2	0.8;
	97	2	0	0	0	0	0	1	0	20	4	1.2	0.8;
	98	2	0	0	0	0	0	1	0	20	4	1.2	0.8;
	99	2	0	0	0	0	0	1	0	20	4	1.2	0.8;
	100	2	0	0	0	0	0	1	0	20	4	1.2	0.8;
	101	2	0	0	0	0	0	1	0	20	4	1.2	0.8;
	102	2	0	0	0	0	0	1	0	20	4	1.2	0.8;
	103	1	62.87	20.5	0	1.15	0	1	0	150	8	1.2	0.8;
	104	2	0	0	0	0	0	1	0	20	3	1.2	0.8;
	105	1	13.5	14.8	0	132.44	0	1	0	380	9	1.2	0.8;
	106	1	126.3	42.4	0	55.24	0	1	0	150	8	1.2	0.8;
	107	2	0	0	0	0	0	1	0	20	3	1.2	0.8;
	108	1	6.91	-4.6	0	5.75	0	1	0	220	4	1.2	0.8;
	109	1	15.72	5.2	0	0.11	0	1	0	110	12	1.2	0.8;
	110	2	0	0	0	0	0	1	0	20	3	1.2	0.8;
	111	1	16.12	4.3	0	0.49	0	1	0	110	23	1.2	0.8;
	112	1	38.74	6.1	0	1.17	0	1	0	220	4	1.2	0.8;
	113	1	22.13	10.7	0	14.21	0	1	0	220	8	1.2	0.8;
	114	2	0	0	0	0	0	1	0	20	4	1.2	0.8;
	115	2	0	0	0	0	0	1	0	20	10	1.2	0.8;
	116	1	0	0	0	0.73	0	1	0	220	4	1.2	0.8;
	117	1	0	0	0	0.83	0	1	0	110	18	1.2	0.8;
	118	1	138.8	136.7	0	8.76	0	1	0	380	3	1.2	0.8;
	119	1	137.3	66.4	0	14.17	0	1	0	220	23	1.2	0.8;
	120	1	67.76	19.18	0	1.47	0	1	0	150	1	1.2	0.8;
	121	2	0	0	0	0	0	1	0	20	14	1.2	0.8;
	122	1	0	0	0	6.62	0	1	0	220	3	1.2	0.8;
	123	1	0	0	0	7.22	0	1	0	380	1	1.2	0.8;
	124	1	1	0.3	0	0.19	0	1	0	110	19	1.2	0.8;
	125	1	20.9	3	0	5.74	0	1	0	154	1	1.2	0.8;
	126	1	0	0	0	0.12	0	1	0	150	9	1.2	0.8;
	127	1	21.52	5.1	0	0.5	0	1	0	110	18	1.2	0.8;
	128	1	71.98	28.8	0	11	0	1	0	220	6	1.2	0.8;
	129	1	0	0	0	4.47	0	1	0	380	2	1.2	0.8;
	130	1	363.25	115.39	0	3.95	0	1	0	220	5	1.2	0.8;
	131	1	192.9	73.3	0	20.75	0	1	0	380	3	1.2	0.8;
	132	2	0	0	0	0	0	1	0	11	1	1.2	0.8;
	133	2	0	0	0	0	0	1	0	20	14	1.2	0.8;
	134	2	0	0	0	0	0	1	0	20	4	1.2	0.8;
	135	2	0	0	0	0	0	1	0	20	4	1.2	0.8;
	136	2	0	0	0	0	0	1	0	20	3	1.2	0.8;
	137	1	17.52	6.3	0	0.26	0	1	0	110	19	1.2	0.8;
	138	1	33.14	12	0	0.65	0	1	0	110	19	1.2	0.8;
	139	1	40.44	25	0	9.82	0	1	0	150	9	1.2	0.8;
	140	1	193.17	53.37	0	4.58	0	1	0	220	5	1.2	0.8;
	141	1	90.7	25.5	0	3.11	0	1	0	220	3	1.2	0.8;
	142	1	176.3	-58.9	0	24.77	0	1	0	380	6	1.2	0.8;
	143	1	35.94	22.3	0	0	0	1	0	150	9	1.2	0.8;
	144	2	0	0	0	0	0	1	0	20	14	1.2	0.8;
	145	2	0	0	0	0	0	1	0	20	5	1.2	0.8;
	146	2	0	0	0	0	0	1	0	20	5	1.2	0.8;
	147	2	0	0	0	0	0	1	0	20	5	1.2	0.8;
	148	1	143.9	123.2	0	72.64	0	1	0	380	3	1.2	0.8;
	149	1	0	0	0	3.77	0	1	0	220	6	1.2	0.8;
	150	1	0	8.4	0	15.72	0	1	0	150	9	1.2	0.8;
	151	2	0	0	0	0	0	1	0	13.8	1	1.2	0.8;
	152	1	51.36	-8.8	0	2.15	0	1	0	220	6	1.2	0.8;
	153	2	0	0	0	0	0	1	0	20	14	1.2	0.8;
	154	2	0	0	0	0	0	1	0	20	3	1.2	0.8;
	155	1	0	0	0	82.55	0	1	0	380	6	1.2	0.8;
	156	2	0	0	0	0	0	1	0	20	6	1.2	0.8;
	157	1	322.7	11.9	0	10.28	0	1	0	380	6	1.2	0.8;
	158	1	303.6	79.8	0	1.69	0	1	0	220	5	1.2	0.8;
	159	1	3.8	1.3	0	0.4	0	1	0	110	18	1.2	0.8;
	160	1	137	19.5	0	4.9	0	1	0	154	1	1.2	0.8;
	161	2	0	0	0	0	0	1	0	20	6	1.2	0.8;
	162	2	0	0	0	0	0	1	0	20	6	1.2	0.8;
	163	1	0	0	0	0	0	1	0	150	9	1.2	0.8;
	164	1	61.07	36	0	3.09	0	1	0	220	11	1.2	0.8;
	165	2	0	0	0	0	0	1	0	20	4	1.2	0.8;
	166	1	0	0	0	3.24	0	1	0	220	3	1.2	0.8;
	167	1	0	0	0	6.52	0	1	0	380	5	1.2	0.8;
	168	1	55.7	7.9	0	4.21	0	1	0	154	1	1.2	0.8;
	169	1	0	0	0	4.21	0	1	0	220	5	1.2	0.8;
	170	1	1.8	0.7	0	0.3	0	1	0	110	19	1.2	0.8;
	171	1	0	0	0	0.71	0	1	0	150	9	1.2	0.8;
	172	1	2.5	0	0	0.96	0	1	0	110	18	1.2	0.8;
	173	1	0	0	0	0.09	0	1	0	150	9	1.2	0.8;
	174	1	38.94	11	0	0.64	0	1	0	110	1	1.2	0.8;
	175	1	45.15	14.1	0	0.19	0	1	0	110	15	1.2	0.8;
	176	1	0	0	0	5.75	0	1	0	220	3	1.2	0.8;
	177	1	0	0	0	4.36	0	1	0	220	11	1.2	0.8;
	178	1	0	0	0	-0.24	0	1	0	220	5	1.2	0.8;
	179	2	0	0	0	0	0	1	0	20	4	1.2	0.8;
	180	1	17.22	5.7	0	1.22	0	1	0	110	21	1.2	0.8;
	181	1	0	0	0	0	0	1	0	20	14	1.2	0.8;
	182	2	0	0	0	0	0	1	0	20	20	1.2	0.8;
	183	1	0	0	0	4.3	0	1	0	220	6	1.2	0.8;
	184	1	23.73	12.7	0	0.52	0	1	0	220	5	1.2	0.8;
	185	1	121.9	7.4	0	1.34	0	1	0	220	3	1.2	0.8;
	186	1	0	0	0	47.75	0	1	0	380	10	1.2	0.8;
	187	1	47.35	16.4	0	4.08	0	1	0	110	22	1.2	0.8;
	188	1	0	0	0	0	0	1	0	20	4	1.2	0.8;
	189	1	0	0	0	21.39	0	1	0	380	1	1.2	0.8;
	190	1	38.14	12.5	0	6.28	0	1	0	150	8	1.2	0.8;
	191	1	54.2	7.8	0	94.9	0	1	0	400	1	1.2	0.8;
	192	1	130.6	84.9	0	4.22	0	1	0	220	7	1.2	0.8;
	193	1	7.91	2.6	0	0.74	0	1	0	110	12	1.2	0.8;
	194	1	42.1	74.61	0	37.58	0	1	0	150	1	1.2	0.8;
	195	1	-75.38	7.8	0	29.9	0	1	0	380	10	1.2	0.8;
	196	2	0	0	0	0	0	1	0	20	6	1.2	0.8;
	197	2	0	0	0	0	0	1	0	20	4	1.2	0.8;
	198	1	41.05	14.3	0	11.53	0	1	0	220	6	1.2	0.8;
	199	1	0	0	0	4.14	0	1	0	220	8	1.2	0.8;
	200	1	100.9	49.3	0	4.33	0	1	0	220	13	1.2	0.8;
	201	1	0	0	0	1.1	0	1	0	220	6	1.2	0.8;
	202	1	0	0	0	0	0	1	0	150	8	1.2	0.8;
	203	1	0	0	0	2.03	0	1	0	220	5	1.2	0.8;
	204	1	0	0	0	98.53	0	1	0	380	14	1.2	0.8;
	205	1	2.8	264.7	0	56.54	0	1	0	380	4	1.2	0.8;
	206	1	38.34	5.6	0	7.64	0	1	0	220	5	1.2	0.8;
	207	2	0	0	0	0	0	1	0	20	5	1.2	0.8;
	208	1	269.6	65.7	0	0	0	1	0	120	20	1.2	0.8;
	209	1	-8.71	-19.54	0	0	0	1	0	150	8	1.2	0.8;
	210	1	160	3.3	0	5.69	0	1	0	220	7	1.2	0.8;
	211	1	32.34	12	0	6.1	0	1	0	220	5	1.2	0.8;
	212	1	100.1	45.1	0	1.11	0	1	0	380	6	1.2	0.8;
	213	1	12.31	3.9	0	5.05	0	1	0	220	5	1.2	0.8;
	214	1	131.75	24.35	0	4.48	0	1	0	154	1	1.2	0.8;
	215	1	0	0	0	107.29	0	1	0	400	1	1.2	0.8;
	216	1	0	0	0	20.96	0	1	0	220	4	1.2	0.8;
	217	1	0	0	0	0.56	0	1	0	150	7	1.2	0.8;
	218	1	0	0	0	1.29	0	1	0	110	12	1.2	0.8;
	219	1	0	0	0	1.7	0	1	0	110	21	1.2	0.8;
	220	2	0	0	0	0	0	1	0	20	3	1.2	0.8;
	221	2	0	0	0	0	0	1	0	20	3	1.2	0.8;
	222	2	0	0	0	0	0	1	0	20	3	1.2	0.8;
	223	2	0	0	0	0	0	1	0	20	3	1.2	0.8;
	224	2	0	0	0	0	0	1	0	20	3	1.2	0.8;
	225	2	0	0	0	0	0	1	0	20	3	1.2	0.8;
	226	1	9.21	3.3	0	1.2	0	1	0	110	19	1.2	0.8;
	227	1	0	0	0	70.58	0	1	0	380	5	1.2	0.8;
	228	1	166	60.3	0	0.57	0	1	0	220	3	1.2	0.8;
	229	2	0	0	0	0	0	1	0	20	10	1.2	0.8;
	230	1	0	0	0	0.1	0	1	0	150	9	1.2	0.8;
	231	1	79.4	11.3	0	4.92	0	1	0	154	1	1.2	0.8;
	232	1	0	0	0	0.16	0	1	0	150	9	1.2	0.8;
	233	1	0	0	0	66.65	0	1	0	380	6	1.2	0.8;
	234	1	-597.44	-326.86	0	0	0	1	0	27	3	1.2	0.8;
	235	1	147.76	32.73	0	8.34	0	1	0	220	5	1.2	0.8;
	236	1	0	0	0	5.17	0	1	0	150	8	1.2	0.8;
	237	1	26.8	-3.7	0	51.26	0	1	0	380	9	1.2	0.8;
	238	1	0	0	0	3.07	0	1	0	220	3	1.2	0.8;
	239	1	257.5	131.1	0	1.08	0	1	0	220	3	1.2	0.8;
	240	1	16.7	2.4	0	6.09	0	1	0	154	1	1.2	0.8;
	241	2	0	0	0	0	0	1	0	20	14	1.2	0.8;
	242	1	0	0	0	1.91	0	1	0	150	9	1.2	0.8;
	243	2	0	0	0	0	0	1	0	20	3	1.2	0.8;
	244	1	100.8	13.2	0	5.24	0	1	0	220	5	1.2	0.8;
	245	1	111.7	10.96	0	4.22	0	1	0	220	4	1.2	0.8;
	246	1	90.38	-5.05	0	8.49	0	1	0	220	13	1.2	0.8;
	247	1	370.5	-17	0	9.91	0	1	0	220	5	1.2	0.8;
	248	2	0	0	0	0	0	1	0	20	10	1.2	0.8;
	249	1	41.05	-46	0	19.25	0	1	0	220	11	1.2	0.8;
	250	2	0	0	0	0	0	1	0	20	4	1.2	0.8;
	251	1	9.91	3.2	0	0.67	0	1	0	110	12	1.2	0.8;
	252	1	-0.69	-5.46	0	5.07	0	1	0	150	9	1.2	0.8;
	253	1	55.46	8.4	0	5	0	1	0	220	4	1.2	0.8;
	254	1	94.9	36.2	0	16.46	0	1	0	220	10	1.2	0.8;
	255	1	81.09	48	0	0.03	0	1	0	150	9	1.2	0.8;
	256	1	0	0	0	113.7	0	1	0	380	18	1.2	0.8;
	257	1	210.4	159.2	0	131.58	0	1	0	380	4	1.2	0.8;
	258	2	0	0	0	0	0	1	0	10.6	1	1.2	0.8;
	259	2	0	0	0	0	0	1	0	20	14	1.2	0.8;
	260	1	19.32	26	0	0.69	0	1	0	220	3	1.2	0.8;
	261	1	29.83	7.3	0	6.49	0	1	0	220	5	1.2	0.8;
	262	1	0	0	0	2.42	0	1	0	220	5	1.2	0.8;
	263	1	20.9	3	0	4.11	0	1	0	154	1	1.2	0.8;
	264	1	19.92	6.6	0	0.56	0	1	0	110	21	1.2	0.8;
	265	1	57.16	2	0	1.48	0	1	0	110	22	1.2	0.8;
	266	2	0	0	0	0	0	1	0	20	18	1.2	0.8;
	267	1	36.84	13.9	0	3.3	0	1	0	220	5	1.2	0.8;
	268	1	-15.04	-5.12	0	0.43	0	1	0	110	18	1.2	0.8;
	269	1	9.21	6	0	0.15	0	1	0	110	19	1.2	0.8;
	270	2	0	0	0	0	0	1	0	10.6	1	1.2	0.8;
	271	2	0	0	0	0	0	1	0	20	5	1.2	0.8;
	272	1	0	0	0	0.68	0	1	0	380	3	1.2	0.8;
	273	2	0	0	0	0	0	1	0	20	5	1.2	0.8;
	274	2	0	0	0	0	0	1	0	20	5	1.2	0.8;
	275	2	0	0	0	0	0	1	0	20	5	1.2	0.8;
	276	2	0	0	0	0	0	1	0	20	5	1.2	0.8;
	277	1	119.9	3.7	0	3.33	0	1	0	220	3	1.2	0.8;
	278	2	0	0	0	0	0	1	0	21	1	1.2	0.8;
	279	1	0	0	0	-0.13	0	1	0	150	8	1.2	0.8;
	280	1	0	0	0	0.21	0	1	0	220	6	1.2	0.8;
	281	1	73.14	21.55	0	8.52	0	1	0	220	5	1.2	0.8;
	282	1	0	0	0	12.48	0	1	0	220	5	1.2	0.8;
	283	2	0	0	0	0	0	1	0	11	1	1.2	0.8;
	284	1	0	0	0	101.32	0	1	0	380	3	1.2	0.8;
	285	1	39.74	11.8	0	1.44	0	1	0	220	5	1.2	0.8;
	286	1	44.35	5.1	0	4	0	1	0	220	4	1.2	0.8;
	287	1	86.8	28.4	0	1.34	0	1	0	150	8	1.2	0.8;
	288	1	50.56	5.9	0	10.58	0	1	0	220	4	1.2	0.8;
	289	2	0	0	0	0	0	1	0	20	10	1.2	0.8;
	290	1	0	0	0	4.73	0	1	0	220	4	1.2	0.8;
	291	1	110.9	32.7	0	15.4	0	1	0	220	14	1.2	0.8;
	292	1	18.2	2.6	0	12.38	0	1	0	154	1	1.2	0.8;
	293	1	0	0	0	14.69	0	1	0	220	18	1.2	0.8;
	294	2	0	0	0	0	0	1	0	14.4	1	1.2	0.8;
	295	1	46.15	18.2	0	1.29	0	1	0	150	8	1.2	0.8;
	296	2	0	0	0	0	0	1	0	6.3	1	1.2	0.8;
	297	1	55.46	15.7	0	13.46	0	1	0	220	4	1.2	0.8;
	298	1	34.04	12.3	0	0.23	0	1	0	110	19	1.2	0.8;
	299	2	0	0	0	0	0	1	0	11	1	1.2	0.8;
	300	1	321.98	84.4	0	1.34	0	1	0	220	5	1.2	0.8;
	301	1	42.55	8.2	0	2.06	0	1	0	220	5	1.2	0.8;
	302	1	33.44	10	0	1.36	0	1	0	110	3	1.2	0.8;
	303	1	0	0	0	0.57	0	1	0	110	12	1.2	0.8;
	304	2	0	0	0	0	0	1	0	20	4	1.2	0.8;
	305	2	0	0	0	0	0	1	0	20	5	1.2	0.8;
	306	2	0	0	0	0	0	1	0	20	5	1.2	0.8;
	307	2	0	0	0	0	0	1	0	20	5	1.2	0.8;
	308	2	0	0	0	0	0	1	0	20	5	1.2	0.8;
	309	2	0	0	0	0	0	1	0	20	5	1.2	0.8;
	310	2	0	0	0	0	0	1	0	20	5	1.2	0.8;
	311	2	0	0	0	0	0	1	0	20	5	1.2	0.8;
	312	2	0	0	0	0	0	1	0	20	5	1.2	0.8;
	313	1	-24.99	-4.94	0	6.99	0	1	0	220	3	1.2	0.8;
	314	1	95.69	24.54	0	2.85	0	1	0	220	13	1.2	0.8;
	315	2	0	0	0	0	0	1	0	6.3	1	1.2	0.8;
	316	1	37.34	10.9	0	0.63	0	1	0	110	1	1.2	0.8;
	317	1	340	93.8	0	74.78	0	1	0	380	13	1.2	0.8;
	318	1	0	0	0	2.04	0	1	0	150	9	1.2	0.8;
	319	1	155.6	54.7	0	2.21	0	1	0	220	5	1.2	0.8;
	320	1	105.2	0.1	0	7.36	0	1	0	220	5	1.2	0.8;
	321	1	69.83	15.12	0	2.23	0	1	0	220	5	1.2	0.8;
	322	1	0	0	0	6.87	0	1	0	380	7	1.2	0.8;
	323	2	0	0	0	0	0	1	0	20	5	1.2	0.8;
	324	2	0	0	0	0	0	1	0	11	1	1.2	0.8;
	325	2	0	0	0	0	0	1	0	6.3	1	1.2	0.8;
	326	1	0	0	0	3.78	0	1	0	380	5	1.2	0.8;
	327	1	176.2	20.8	0	4.59	0	1	0	150	1	1.2	0.8;
	328	2	0	0	0	0	0	1	0	20	10	1.2	0.8;
	329	1	27.03	8.8	0	1.84	0	1	0	110	21	1.2	0.8;
	330	1	0	0	0	0.28	0	1	0	150	6	1.2	0.8;
	331	2	0	0	0	0	0	1	0	13.8	1	1.2	0.8;
	332	2	0	0	0	0	0	1	0	6.3	1	1.2	0.8;
	333	1	0	0	0	1.15	0	1	0	220	5	1.2	0.8;
	334	1	0	0	0	0	0	1	0	20	4	1.2	0.8;
	335	1	14.62	4.8	0	1.02	0	1	0	110	12	1.2	0.8;
	336	2	0	0	0	0	0	1	0	20	4	1.2	0.8;
	337	1	0	0	0	0	0	1	0	20	4	1.2	0.8;
	338	2	0	0	0	0	0	1	0	20	4	1.2	0.8;
	339	1	0	0	0	0	0	1	0	20	4	1.2	0.8;
	340	1	45.05	-2.2	0	3.96	0	1	0	220	4	1.2	0.8;
	341	1	0	0	0	2.55	0	1	0	220	7	1.2	0.8;
	342	1	-23.43	57.4	0	0	0	1	0	150	2	1.2	0.8;
	343	1	426.6	93.7	0	80.94	0	1	0	380	6	1.2	0.8;
	344	1	152.07	22.52	0	7.87	0	1	0	220	4	1.2	0.8;
	345	2	0	0	0	0	0	1	0	20	4	1.2	0.8;
	346	2	0	0	0	0	0	1	0	20	4	1.2	0.8;
	347	1	0	0	0	0.7	0	1	0	150	9	1.2	0.8;
	348	1	2.5	3.8	0	0.15	0	1	0	110	18	1.2	0.8;
	349	1	30.53	10.9	0	2.68	0	1	0	220	19	1.2	0.8;
	350	1	34.04	4.4	0	1.25	0	1	0	110	22	1.2	0.8;
	351	2	0	0	0	0	0	1	0	20	6	1.2	0.8;
	352	1	45.85	7	0	1.05	0	1	0	220	4	1.2	0.8;
	353	1	0	0	0	30.97	0	1	0	380	3	1.2	0.8;
	354	2	0	0	0	0	0	1	0	20	14	1.2	0.8;
	355	1	46.05	16.9	0	0.29	0	1	0	110	19	1.2	0.8;
	356	1	0	0	0	0	0	1	0	150	9	1.2	0.8;
	357	1	0	0	0	3.95	0	1	0	220	3	1.2	0.8;
	358	2	0	0	0	0	0	1	0	20	10	1.2	0.8;
	359	1	-876.96	-325.87	0	0	0	1	0	27	3	1.2	0.8;
	360	2	0	0	0	0	0	1	0	20	4	1.2	0.8;
	361	2	0	0	0	0	0	1	0	20	4	1.2	0.8;
	362	2	0	0	0	0	0	1	0	20	4	1.2	0.8;
	363	2	0	0	0	0	0	1	0	20	4	1.2	0.8;
	364	2	0	0	0	0	0	1	0	20	4	1.2	0.8;
	365	2	0	0	0	0	0	1	0	15.75	1	1.2	0.8;
	366	1	167.9	18.2	0	5.97	0	1	0	220	3	1.2	0.8;
	367	1	0	0	0	13.49	0	1	0	150	8	1.2	0.8;
	368	2	0	0	0	0	0	1	0	20	4	1.2	0.8;
	369	2	0	0	0	0	0	1	0	20	4	1.2	0.8;
	370	1	0	0	0	0.68	0	1	0	150	8	1.2	0.8;
	371	1	44.35	14.8	0	1.94	0	1	0	110	21	1.2	0.8;
	372	1	131.9	31.1	0	14.05	0	1	0	220	1	1.2	0.8;
	373	1	0	0	0	0.72	0	1	0	110	18	1.2	0.8;
	374	1	224.2	73.9	0	84.09	0	1	0	380	13	1.2	0.8;
	375	1	0	0	0	26.3	0	1	0	220	4	1.2	0.8;
	376	1	128.9	73.7	0	25.37	0	1	0	380	3	1.2	0.8;
	377	1	0	0	0	0	0	1	0	20	22	1.2	0.8;
	378	1	0	0	0	0	0	1	0	20	22	1.2	0.8;
	379	1	0	0	0	13.85	0	1	0	380	3	1.2	0.8;
	380	1	118.4	16.9	0	8.02	0	1	0	154	1	1.2	0.8;
	381	1	0	0	0	0	0	1	0	20	22	1.2	0.8;
	382	2	0	0	0	0	0	1	0	20	22	1.2	0.8;
	383	2	0	0	0	0	0	1	0	20	22	1.2	0.8;
	384	1	0	0	0	0	0	1	0	20	22	1.2	0.8;
	385	1	0	0	0	2.66	0	1	0	220	3	1.2	0.8;
	386	1	0	0	0	4.06	0	1	0	220	1	1.2	0.8;
	387	1	0	0	0	12.74	0	1	0	380	21	1.2	0.8;
	388	1	0	0	0	2.24	0	1	0	380	16	1.2	0.8;
	389	1	0	0	0	7.09	0	1	0	220	6	1.2	0.8;
	390	1	113.9	24.5	0	6.72	0	1	0	220	4	1.2	0.8;
	391	1	88	12.6	0	22.25	0	1	0	154	1	1.2	0.8;
	392	2	0	0	0	0	0	1	0	6.3	1	1.2	0.8;
	393	1	42.67	12.1	0	14.84	0	1	0	150	9	1.2	0.8;
	394	2	0	0	0	0	0	1	0	20	14	1.2	0.8;
	395	2	0	0	0	0	0	1	0	20	14	1.2	0.8;
	396	2	0	0	0	0	0	1	0	20	6	1.2	0.8;
	397	1	0	0	0	1.29	0	1	0	380	10	1.2	0.8;
	398	1	0	0	0	9.41	0	1	0	220	18	1.2	0.8;
	399	1	160.8	10.6	0	21.96	0	1	0	220	13	1.2	0.8;
	400	2	0	0	0	0	0	1	0	10.3	1	1.2	0.8;
	401	1	126.8	21.4	0	11.43	0	1	0	220	4	1.2	0.8;
	402	1	48.8	6.9	0	3.11	0	1	0	154	1	1.2	0.8;
	403	1	38.74	9	0	0.57	0	1	0	220	4	1.2	0.8;
	404	1	350.4	29.3	0	19.31	0	1	0	220	11	1.2	0.8;
	405	2	0	0	0	0	0	1	0	20	2	1.2	0.8;
	406	2	0	0	0	0	0	1	0	20	2	1.2	0.8;
	407	1	103.8	2.7	0	3.33	0	1	0	220	4	1.2	0.8;
	408	2	0	0	0	0	0	1	0	20	4	1.2	0.8;
	409	1	-0.13	-1	0	0	0	1	0	220	8	1.2	0.8;
	410	1	0	0	0	0.66	0	1	0	110	22	1.2	0.8;
	411	1	0	0	0	6.34	0	1	0	380	1	1.2	0.8;
	412	1	96.7	26.8	0	0	0	1	0	150	2	1.2	0.8;
	413	1	0	0	0	19.54	0	1	0	150	9	1.2	0.8;
	414	1	0	0	0	14.87	0	1	0	220	23	1.2	0.8;
	415	1	0	0	0	0	0	1	0	150	9	1.2	0.8;
	416	1	19.02	6	0	0.25	0	1	0	110	21	1.2	0.8;
	417	1	102.1	25.3	0	1.11	0	1	0	150	8	1.2	0.8;
	418	1	0	0	0	2.44	0	1	0	220	3	1.2	0.8;
	419	1	0	0	0	0	0	1	0	150	9	1.2	0.8;
	420	1	113.3	30.2	0	2.14	0	1	0	110	18	1.2	0.8;
	421	1	8.31	3	0	0.99	0	1	0	110	19	1.2	0.8;
	422	1	119.6	29.6	0	5.34	0	1	0	220	5	1.2	0.8;
	423	2	0	0	0	0	0	1	0	6.3	1	1.2	0.8;
	424	1	0	0	0	18.07	0	1	0	380	8	1.2	0.8;
	425	1	49.9	144	0	80.06	0	1	0	380	18	1.2	0.8;
	426	1	27.33	11.9	0	1.17	0	1	0	220	5	1.2	0.8;
	427	1	191.2	-3.4	0	19.21	0	1	0	220	4	1.2	0.8;
	428	1	0	0	0	18.32	0	1	0	380	1	1.2	0.8;
	429	1	101.6	14.5	0	1.94	0	1	0	154	1	1.2	0.8;
	430	1	177.1	66.9	0	71.03	0	1	0	380	16	1.2	0.8;
	431	1	0	0	0	0.3	0	1	0	150	9	1.2	0.8;
	432	2	0	0	0	0	0	1	0	6.3	1	1.2	0.8;
	433	2	0	0	0	0	0	1	0	20	23	1.2	0.8;
	434	1	0	0	0	-0.03	0	1	0	220	6	1.2	0.8;
	435	1	53.46	18.7	0	1.64	0	1	0	220	20	1.2	0.8;
	436	1	0	0	0	12.73	0	1	0	220	14	1.2	0.8;
	437	1	344.7	-31.1	0	39.13	0	1	0	380	6	1.2	0.8;
	438	2	0	0	0	0	0	1	0	20	5	1.2	0.8;
	439	1	0	0	0	1.98	0	1	0	220	3	1.2	0.8;
	440	1	85.1	67	0	0.18	0	1	0	150	9	1.2	0.8;
	441	1	0	0	0	0	0	1	0	20	5	1.2	0.8;
	442	2	0	0	0	0	0	1	0	20	5	1.2	0.8;
	443	1	0	0	0	0.08	0	1	0	220	6	1.2	0.8;
	444	1	189.3	76.7	0	3.24	0	1	0	220	3	1.2	0.8;
	445	1	23.73	9.4	0	1.45	0	1	0	150	8	1.2	0.8;
	446	1	10.01	-21	0	8.59	0	1	0	220	11	1.2	0.8;
	447	1	0	0	0	0	0	1	0	20	5	1.2	0.8;
	448	2	0	0	0	0	0	1	0	20	5	1.2	0.8;
	449	1	228.1	131.8	0	3.93	0	1	0	380	4	1.2	0.8;
	450	1	0	0	0	1.05	0	1	0	150	9	1.2	0.8;
	451	1	-14.85	-4.95	0	0.37	0	1	0	110	18	1.2	0.8;
	452	1	20.9	3	0	2.65	0	1	0	154	1	1.2	0.8;
	453	1	431.7	121.6	0	1.14	0	1	0	220	21	1.2	0.8;
	454	2	0	0	0	0	0	1	0	20	5	1.2	0.8;
	455	1	17.62	7.7	0	0.59	0	1	0	110	22	1.2	0.8;
	456	1	0	0	0	109.27	0	1	0	380	4	1.2	0.8;
	457	1	103	12	0	0.63	0	1	0	220	5	1.2	0.8;
	458	2	0	0	0	0	0	1	0	20	9	1.2	0.8;
	459	1	0	0	0	4.76	0	1	0	220	5	1.2	0.8;
	460	1	0	0	0	25.85	0	1	0	380	1	1.2	0.8;
	461	1	0	0	0	0	0	1	0	150	9	1.2	0.8;
	462	1	0	0	0	3.08	0	1	0	220	3	1.2	0.8;
	463	2	0	0	0	0	0	1	0	380	9	1.2	0.8;
	464	1	42.05	17.2	0	1.31	0	1	0	150	8	1.2	0.8;
	465	1	-0.16	-2.91	0	0.43	0	1	0	110	8	1.2	0.8;
	466	1	0	0	0	0.06	0	1	0	154	1	1.2	0.8;
	467	1	163.1	46.3	0	10.6	0	1	0	220	5	1.2	0.8;
	468	1	0	0	0	2.13	0	1	0	220	10	1.2	0.8;
	469	1	0	0	0	2.81	0	1	0	220	3	1.2	0.8;
	470	2	0	0	0	0	0	1	0	20	2	1.2	0.8;
	471	1	0	0	0	-1.99	0	1	0	380	2	1.2	0.8;
	472	1	0	0	0	1.05	0	1	0	150	9	1.2	0.8;
	473	1	153.3	21.8	0	18.25	0	1	0	154	1	1.2	0.8;
	474	1	0	0	0	141.93	0	1	0	400	1	1.2	0.8;
	475	1	67.17	-23.9	0	0.93	0	1	0	220	3	1.2	0.8;
	476	2	0	0	0	0	0	1	0	20	10	1.2	0.8;
	477	2	0	0	0	0	0	1	0	20	14	1.2	0.8;
	478	1	0	0	0	11.29	0	1	0	380	3	1.2	0.8;
	479	1	382.4	86.3	0	22.29	0	1	0	220	11	1.2	0.8;
	480	2	0	0	0	0	0	1	0	20	6	1.2	0.8;
	481	2	0	0	0	0	0	1	0	20	6	1.2	0.8;
	482	2	0	0	0	0	0	1	0	20	6	1.2	0.8;
	483	2	0	0	0	0	0	1	0	20	6	1.2	0.8;
	484	1	33.5	4.8	0	5.48	0	1	0	154	1	1.2	0.8;
	485	2	0	0	0	0	0	1	0	20	18	1.2	0.8;
	486	1	0.01	0	0	0	0	1	0	220	8	1.2	0.8;
	487	1	0	0	0	12.29	0	1	0	380	3	1.2	0.8;
	488	1	291.5	51.3	0	12.64	0	1	0	220	13	1.2	0.8;
	489	1	24.23	7.1	0	1.64	0	1	0	110	21	1.2	0.8;
	490	1	108.6	2.6	0	31.8	0	1	0	380	3	1.2	0.8;
	491	1	4	2.4	0	0.03	0	1	0	150	9	1.2	0.8;
	492	2	0	0	0	0	0	1	0	20	10	1.2	0.8;
	493	1	30.03	10.9	0	1.45	0	1	0	110	19	1.2	0.8;
	494	1	0	0	0	45.39	0	1	0	380	15	1.2	0.8;
	495	1	524.5	43	0	6.85	0	1	0	220	5	1.2	0.8;
	496	2	0	0	0	0	0	1	0	20	18	1.2	0.8;
	497	1	129.9	18.5	0	0.38	0	1	0	154	1	1.2	0.8;
	498	1	0	0	0	1.92	0	1	0	110	18	1.2	0.8;
	499	1	4.4	0	0	0.51	0	1	0	110	18	1.2	0.8;
	500	1	9.22	1.2	0	0.8	0	1	0	110	19	1.2	0.8;
	501	1	0	0	0	0.12	0	1	0	220	5	1.2	0.8;
	502	1	0	0	0	0.14	0	1	0	220	6	1.2	0.8;
	503	1	0	0	0	0.36	0	1	0	110	19	1.2	0.8;
	504	1	0	0	0	0.81	0	1	0	110	21	1.2	0.8;
	505	1	35.41	20.3	0	10.07	0	1	0	220	6	1.2	0.8;
	506	1	3.2	1.2	0	0.69	0	1	0	110	19	1.2	0.8;
	507	1	372.8	147.5	0	27.73	0	1	0	150	8	1.2	0.8;
	508	2	0	0	0	0	0	1	0	20	5	1.2	0.8;
	509	2	0	0	0	0	0	1	0	20	5	1.2	0.8;
	510	2	0	0	0	0	0	1	0	20	5	1.2	0.8;
	511	1	0	0	0	0	0	1	0	20	5	1.2	0.8;
	512	1	0	0	0	0	0	1	0	20	5	1.2	0.8;
	513	1	0	0	0	0	0	1	0	20	5	1.2	0.8;
	514	2	0	0	0	0	0	1	0	20	5	1.2	0.8;
	515	1	0	0	0	0	0	1	0	20	5	1.2	0.8;
	516	2	0	0	0	0	0	1	0	20	5	1.2	0.8;
	517	1	0	0	0	-0.24	0	1	0	220	11	1.2	0.8;
	518	1	197.5	48.3	0	0.71	0	1	0	220	5	1.2	0.8;
	519	1	0	0	0	0.22	0	1	0	154	1	1.2	0.8;
	520	1	0	0	0	15.15	0	1	0	150	8	1.2	0.8;
	521	1	110.4	26.2	0	5.62	0	1	0	220	5	1.2	0.8;
	522	1	-0.15	-1.93	0	0	0	1	0	220	8	1.2	0.8;
	523	1	0	0	0	10.12	0	1	0	380	5	1.2	0.8;
	524	1	0	0	0	14.6	0	1	0	220	12	1.2	0.8;
	525	1	0	0	0	0	0	1	0	150	8	1.2	0.8;
	526	1	-4.86	-2.15	0	0.31	0	1	0	110	18	1.2	0.8;
	527	1	141.1	2.1	0	4.78	0	1	0	220	7	1.2	0.8;
	528	2	0	0	0	0	0	1	0	20	5	1.2	0.8;
	529	1	52.96	32.8	0	14.14	0	1	0	150	9	1.2	0.8;
	530	1	149.2	-74.6	0	49.24	0	1	0	380	13	1.2	0.8;
	531	2	0	0	0	0	0	1	0	20	7	1.2	0.8;
	532	2	0	0	0	0	0	1	0	20	10	1.2	0.8;
	533	2	0	0	0	0	0	1	0	20	22	1.2	0.8;
	534	1	10.81	5.1	0	1.09	0	1	0	110	18	1.2	0.8;
	535	1	0	0	0	2.37	0	1	0	220	1	1.2	0.8;
	536	1	35.54	11.5	0	3.65	0	1	0	110	8	1.2	0.8;
	537	1	0	0	0	22.91	0	1	0	380	13	1.2	0.8;
	538	1	48.93	14.52	0	2.85	0	1	0	150	1	1.2	0.8;
	539	2	0	0	0	0	0	1	0	15	1	1.2	0.8;
	540	1	0	0	0	26.52	0	1	0	150	9	1.2	0.8;
	541	1	10.01	4	0	8.11	0	1	0	220	6	1.2	0.8;
	542	1	0	0	0	0.82	0	1	0	150	9	1.2	0.8;
	543	1	109.7	15	0	30.97	0	1	0	220	5	1.2	0.8;
	544	1	65.17	-51.5	0	4.85	0	1	0	220	5	1.2	0.8;
	545	1	66.97	14.1	0	5.58	0	1	0	220	3	1.2	0.8;
	546	1	0	0	0	7.11	0	1	0	220	6	1.2	0.8;
	547	1	0	0	0	3.78	0	1	0	220	8	1.2	0.8;
	548	1	56.76	23.2	0	0.49	0	1	0	150	8	1.2	0.8;
	549	1	0	0	0	0.7	0	1	0	220	3	1.2	0.8;
	550	1	10.81	3.9	0	1.64	0	1	0	110	15	1.2	0.8;
	551	1	0	0	0	0	0	1	0	150	9	1.2	0.8;
	552	2	0	0	0	0	0	1	0	13.8	1	1.2	0.8;
	553	1	373.7	125.6	0	71.24	0	1	0	380	14	1.2	0.8;
	554	1	0	0	0	0.16	0	1	0	150	9	1.2	0.8;
	555	1	0	0	0	2.27	0	1	0	154	1	1.2	0.8;
	556	1	0	0	0	1.61	0	1	0	220	3	1.2	0.8;
	557	1	0	0	0	35.09	0	1	0	380	6	1.2	0.8;
	558	1	-0.18	-1	0	0	0	1	0	150	8	1.2	0.8;
	559	2	0	0	0	0	0	1	0	11	1	1.2	0.8;
	560	1	9.91	3.3	0	6.72	0	1	0	110	22	1.2	0.8;
	561	1	221.35	51.8	0	8.81	0	1	0	220	13	1.2	0.8;
	562	1	23.83	7.9	0	0.72	0	1	0	110	21	1.2	0.8;
	563	1	-95.71	-2.8	0	7.25	0	1	0	220	10	1.2	0.8;
	564	2	0	0	0	0	0	1	0	20	20	1.2	0.8;
	565	1	44.05	0	0	0	0	1	0	150	7	1.2	0.8;
	566	1	16.52	3	0	11.5	0	1	0	220	7	1.2	0.8;
	567	1	0	0	0	0	0	1	0	20	7	1.2	0.8;
	568	1	0	0	0	19.63	0	1	0	220	3	1.2	0.8;
	569	1	0	0	0	0.3	0	1	0	150	9	1.2	0.8;
	570	1	0	0	0	105.84	0	1	0	380	4	1.2	0.8;
	571	1	0	0	0	28.09	0	1	0	380	3	1.2	0.8;
	572	2	0	0	0	0	0	1	0	13.8	1	1.2	0.8;
	573	1	0	0	0	12.06	0	1	0	220	19	1.2	0.8;
	574	1	0	0	0	0.28	0	1	0	150	10	1.2	0.8;
	575	2	0	0	0	0	0	1	0	20	5	1.2	0.8;
	576	2	0	0	0	0	0	1	0	20	5	1.2	0.8;
	577	2	0	0	0	0	0	1	0	20	5	1.2	0.8;
	578	1	34.94	21.6	0	0.18	0	1	0	150	9	1.2	0.8;
	579	1	134.1	34.2	0	0.75	0	1	0	150	8	1.2	0.8;
	580	1	17.72	5.9	0	0.32	0	1	0	220	21	1.2	0.8;
	581	2	0	0	0	0	0	1	0	20	5	1.2	0.8;
	582	1	0	0	0	77.02	0	1	0	380	3	1.2	0.8;
	583	1	0	0	0	7.85	0	1	0	380	8	1.2	0.8;
	584	1	-0.51	-20.69	0	2.07	0	1	0	220	3	1.2	0.8;
	585	2	0	0	0	0	0	1	0	20	2	1.2	0.8;
	586	1	0	0	0	0	0	1	0	150	9	1.2	0.8;
	587	1	77.79	-40.8	0	12.06	0	1	0	220	3	1.2	0.8;
	588	1	0	0	0	2.09	0	1	0	220	5	1.2	0.8;
	589	2	0	0	0	0	0	1	0	20	4	1.2	0.8;
	590	1	5.01	2	0	0.13	0	1	0	220	6	1.2	0.8;
	591	1	-19.66	-10.83	0	0.06	0	1	0	110	18	1.2	0.8;
	592	1	56.5	36.29	0	3.08	0	1	0	220	5	1.2	0.8;
	593	1	0	0	0	0	0	1	0	20	4	1.2	0.8;
	594	1	0	0	0	0	0	1	0	20	4	1.2	0.8;
	595	1	0	0	0	7.33	0	1	0	220	18	1.2	0.8;
	596	1	3.81	0.24	0	0.23	0	1	0	110	18	1.2	0.8;
	597	1	254.7	79.4	0	9.43	0	1	0	380	6	1.2	0.8;
	598	1	20.9	3	0	2.54	0	1	0	154	1	1.2	0.8;
	599	1	77.99	30.8	0	2.41	0	1	0	150	8	1.2	0.8;
	600	1	-0.15	-1	0	0.38	0	1	0	110	8	1.2	0.8;
	601	1	129.1	7.4	0	0.04	0	1	0	220	5	1.2	0.8;
	602	1	126.3	17.9	0	2.59	0	1	0	154	1	1.2	0.8;
	603	1	151.5	7.9	0	5	0	1	0	220	5	1.2	0.8;
	604	1	0	0	0	1.15	0	1	0	110	22	1.2	0.8;
	605	1	26.4	3.8	0	4.65	0	1	0	154	1	1.2	0.8;
	606	1	0	0	0	6.21	0	1	0	220	5	1.2	0.8;
	607	1	20.52	10.3	0	0.04	0	1	0	150	9	1.2	0.8;
	608	1	4.71	0.7	0	11.39	0	1	0	220	4	1.2	0.8;
	609	1	70.68	13.5	0	6.96	0	1	0	220	5	1.2	0.8;
	610	2	0	0	0	0	0	1	0	20	18	1.2	0.8;
	611	1	234.3	105.9	0	5.48	0	1	0	220	13	1.2	0.8;
	612	1	24.43	8.7	0	0.17	0	1	0	110	15	1.2	0.8;
	613	1	0	0	0	0	0	1	0	20	4	1.2	0.8;
	614	2	0	0	0	0	0	1	0	20	6	1.2	0.8;
	615	2	0	0	0	0	0	1	0	20	6	1.2	0.8;
	616	1	0	0	0	0	0	1	0	380	8	1.2	0.8;
	617	1	46.15	11.2	0	10.16	0	1	0	220	5	1.2	0.8;
	618	1	33.74	20.9	0	1.1	0	1	0	150	9	1.2	0.8;
	619	2	0	0	0	0	0	1	0	20	6	1.2	0.8;
	620	1	35.84	12.5	0	0.26	0	1	0	110	19	1.2	0.8;
	621	2	0	0	0	0	0	1	0	11	1	1.2	0.8;
	622	1	0	0	0	4.68	0	1	0	380	3	1.2	0.8;
	623	2	0	0	0	0	0	1	0	20	14	1.2	0.8;
	624	1	0	0	0	2.72	0	1	0	380	1	1.2	0.8;
	625	1	0	0	0	0	0	1	0	150	9	1.2	0.8;
	626	2	0	0	0	0	0	1	0	20	14	1.2	0.8;
	627	1	123.1	6.5	0	3.25	0	1	0	220	5	1.2	0.8;
	628	1	0	0	0	1.24	0	1	0	380	1	1.2	0.8;
	629	1	83.9	11.9	0	1.14	0	1	0	154	1	1.2	0.8;
	630	1	0.1	0	0	0.57	0	1	0	110	18	1.2	0.8;
	631	1	26.93	-22.4	0	4.95	0	1	0	220	4	1.2	0.8;
	632	1	29.03	9	0	0.56	0	1	0	110	21	1.2	0.8;
	633	1	188.42	106.93	0	4.89	0	1	0	220	13	1.2	0.8;
	634	1	0	0	0	68.58	0	1	0	380	5	1.2	0.8;
	635	2	0	0	0	0	0	1	0	11	1	1.2	0.8;
	636	1	0	0	0	0.69	0	1	0	150	9	1.2	0.8;
	637	2	0	0	0	0	0	1	0	20	4	1.2	0.8;
	638	1	0	0	0	0.3	0	1	0	380	3	1.2	0.8;
	639	1	9.7	1.4	0	4.89	0	1	0	154	1	1.2	0.8;
	640	1	176.2	-46.9	0	5.47	0	1	0	220	6	1.2	0.8;
	641	1	33.14	11.6	0	0.22	0	1	0	110	19	1.2	0.8;
	642	1	18.3	8.2	0	35.42	0	1	0	380	9	1.2	0.8;
	643	1	69.08	24	0	1	0	1	0	220	6	1.2	0.8;
	644	1	0	0	0	3.17	0	1	0	220	3	1.2	0.8;
	645	1	0	0	0	16.94	0	1	0	220	3	1.2	0.8;
	646	2	0	0	0	0	0	1	0	20	4	1.2	0.8;
	647	1	0	0	0	27.89	0	1	0	380	10	1.2	0.8;
	648	2	0	0	0	0	0	1	0	20	10	1.2	0.8;
	649	2	0	0	0	0	0	1	0	20	4	1.2	0.8;
	650	1	44.85	7.1	0	5.65	0	1	0	220	4	1.2	0.8;
	651	2	0	0	0	0	0	1	0	20	23	1.2	0.8;
	652	2	0	0	0	0	0	1	0	20	23	1.2	0.8;
	653	1	-12.61	4.1	0	1.83	0	1	0	150	9	1.2	0.8;
	654	2	0	0	0	0	0	1	0	20	6	1.2	0.8;
	655	1	0	0	0	2.45	0	1	0	220	5	1.2	0.8;
	656	1	36.74	10.3	0	8.1	0	1	0	220	4	1.2	0.8;
	657	1	100.53	43.37	0	0	0	1	0	110	24	1.2	0.8;
	658	1	2.2	1.3	0	1.05	0	1	0	110	18	1.2	0.8;
	659	1	0	0	0	0	0	1	0	150	9	1.2	0.8;
	660	2	0	0	0	0	0	1	0	20	4	1.2	0.8;
	661	1	0	0	0	29.42	0	1	0	380	5	1.2	0.8;
	662	1	42.04	43	0	0.02	0	1	0	150	9	1.2	0.8;
	663	1	0	0	0	22.71	0	1	0	380	1	1.2	0.8;
	664	1	104.4	27.6	0	1.85	0	1	0	110	22	1.2	0.8;
	665	1	0	0	0	3.7	0	1	0	380	5	1.2	0.8;
	666	2	0	0	0	0	0	1	0	20	9	1.2	0.8;
	667	1	23.7	3.4	0	8.13	0	1	0	154	1	1.2	0.8;
	668	1	274.32	5.66	0	13.24	0	1	0	220	5	1.2	0.8;
	669	1	2.5	0	0	0.64	0	1	0	110	18	1.2	0.8;
	670	1	1.8	0.7	0	0.18	0	1	0	110	19	1.2	0.8;
	671	2	0	0	0	0	0	1	0	11	1	1.2	0.8;
	672	1	0	0	0	35.27	0	1	0	380	11	1.2	0.8;
	673	1	97	40.3	0	16.79	0	1	0	220	3	1.2	0.8;
	674	1	0	0	0	0.88	0	1	0	110	18	1.2	0.8;
	675	1	0	0	0	0	0	1	0	150	9	1.2	0.8;
	676	2	0	0	0	0	0	1	0	20	4	1.2	0.8;
	677	1	15.22	5.1	0	1.34	0	1	0	110	18	1.2	0.8;
	678	1	0	0	0	0	0	1	0	150	9	1.2	0.8;
	679	1	0	0	0	13.43	0	1	0	380	9	1.2	0.8;
	680	1	108.5	35.3	0	49.63	0	1	0	380	3	1.2	0.8;
	681	2	0	0	0	0	0	1	0	20	24	1.2	0.8;
	682	1	24.33	7.6	0	1.18	0	1	0	110	18	1.2	0.8;
	683	1	44.75	0.9	0	6.67	0	1	0	220	7	1.2	0.8;
	684	2	0	0	0	0	0	1	0	20	6	1.2	0.8;
	685	1	0	0	0	0	0	1	0	150	9	1.2	0.8;
	686	1	40.5	5.7	0	3.9	0	1	0	154	1	1.2	0.8;
	687	1	0	0	0	27.85	0	1	0	380	3	1.2	0.8;
	688	1	9.01	6.8	0	0.44	0	1	0	110	18	1.2	0.8;
	689	1	81.09	48	0	0.03	0	1	0	150	9	1.2	0.8;
	690	1	0	0	0	0.43	0	1	0	150	9	1.2	0.8;
	691	1	11.01	5.5	0	1.12	0	1	0	110	22	1.2	0.8;
	692	1	0	0	0	1.47	0	1	0	220	6	1.2	0.8;
	693	2	0	0	0	0	0	1	0	20	2	1.2	0.8;
	694	1	336.2	131.6	0	64.01	0	1	0	150	8	1.2	0.8;
	695	2	0	0	0	0	0	1	0	11	1	1.2	0.8;
	696	1	-22.95	-3.72	0	14.34	0	1	0	220	4	1.2	0.8;
	697	1	0	0	0	0.97	0	1	0	110	1	1.2	0.8;
	698	2	0	0	0	0	0	1	0	20	4	1.2	0.8;
	699	1	0	0	0	9.41	0	1	0	380	3	1.2	0.8;
	700	1	67.3	94.8	0	7.96	0	1	0	220	3	1.2	0.8;
	701	1	0	0	0	70.37	0	1	0	380	4	1.2	0.8;
	702	1	0	0	0	33.23	0	1	0	380	3	1.2	0.8;
	703	1	16.62	3.1	0	1.14	0	1	0	110	18	1.2	0.8;
	704	1	5.81	1.1	0	4.02	0	1	0	110	19	1.2	0.8;
	705	1	0	0	0	6.31	0	1	0	220	5	1.2	0.8;
	706	1	0	0	0	17.44	0	1	0	220	4	1.2	0.8;
	707	1	113.4	11.9	0	5.4	0	1	0	220	3	1.2	0.8;
	708	1	0	0	0	1.05	0	1	0	110	18	1.2	0.8;
	709	2	0	0	0	0	0	1	0	20	5	1.2	0.8;
	710	1	23.26	3.01	0	9.29	0	1	0	220	5	1.2	0.8;
	711	1	57.26	15.6	0	3.43	0	1	0	220	4	1.2	0.8;
	712	1	0	0	0	25.17	0	1	0	220	3	1.2	0.8;