function mpc = case_ACTIVSg10k_OPF1
%CASE_ACTIVSG10K_OPF1

%% MATPOWER Case Format : Version 2
mpc.version = '2';

%%-----  Power Flow Data  -----%%
%% system MVA base
mpc.baseMVA = 100;

%% bus data
%	bus_i	type	Pd	Qd	Gs	Bs	area	Vm	Va	baseKV	zone	Vmax	Vmin
mpc.bus = [
	10001	1	9.64	2.54	0	0	1	1	0	138	1	1.05	0.95;
	10002	1	15.98	6.04	0	0	1	1	0	138	1	1.05	0.95;
	10003	1	14.39	1.09	0	0	1	1	0	138	1	1.05	0.95;
	10004	1	0	0	0	0	1	1	0	138	1	1.05	0.95;
	10005	1	10.45	2.75	0	0	1	1	0	138	1	1.05	0.95;
	10006	1	13.44	1.28	0	0	1	1	0	138	1	1.05	0.95;
	10007	1	0	0	0	0	1	1	0	138	1	1.05	0.95;
	10008	1	0	0	0	0	1	1	0	138	1	1.05	0.95;
	10009	1	16.82	2.59	0	0	1	1	0	138	1	1.05	0.95;
	10010	1	33.49	15.14	0	0	1	1	0	138	1	1.05	0.95;
	10011	1	32.02	8.17	0	0	1	1	0	138	1	1.05	0.95;
	10012	1	0	0	0	0	1	1	0	345	1	1.05	0.95;
	10013	1	57.79	30.06	0	0	1	1	0	138	1	1.05	0.95;
	10014	1	0	0	0	0	1	1	0	138	1	1.05	0.95;
	10015	1	25.01	11.8	0	0	1	1	0	138	1	1.05	0.95;
	10016	1	0	0	0	0	1	1	0	138	1	1.05	0.95;
	10017	1	25.89	7.16	0	0	1	1	0	138	1	1.05	0.95;
	10018	1	24.47	6.19	0	0	1	1	0	138	1	1.05	0.95;
	10019	1	0	0	0	0	1	1	0	345	1	1.05	0.95;
	10020	1	53.35	4.54	0	32	1	1	0	138	1	1.05	0.95;
	10021	1	8.99	2.13	0	0	1	1	0	138	1	1.05	0.95;
	10022	1	48.19	15.92	0	0	1	1	0	138	1	1.05	0.95;
	10023	1	0	0	0	0	1	1	0	345	1	1.05	0.95;
	10024	1	43.96	8.97	0	0	1	1	0	138	1	1.05	0.95;
	10025	1	30.89	12.76	0	0	1	1	0	138	1	1.05	0.95;
	10026	1	18.65	4.97	0	0	1	1	0	138	1	1.05	0.95;
	10027	1	0	0	0	0	1	1	0	138	1	1.05	0.95;
	10028	1	32.23	12.72	0	0	1	1	0	138	1	1.05	0.95;
	10029	1	32.23	1.85	0	0	1	1	0	138	1	1.05	0.95;
	10030	1	0	0	0	0	1	1	0	138	1	1.05	0.95;
	10031	1	39.8	7.18	0	0	1	1	0	138	1	1.05	0.95;
	10032	1	41.5	5.68	0	0	1	1	0	138	1	1.05	0.95;
	10033	1	59.05	6.96	0	0	1	1	0	138	1	1.05	0.95;
	10034	1	0	0	0	0	1	1	0	138	1	1.05	0.95;
	10035	1	59.05	42.65	0	0	1	1	0	138	1	1.05	0.95;
	10036	1	0	0	0	0	1	1	0	138	1	1.05	0.95;
	10037	1	58.29	11.32	0	0	1	1	0	138	1	1.05	0.95;
	10038	1	36.59	13.17	0	0	1	1	0	138	1	1.05	0.95;
	10039	1	0	0	0	0	1	1	0	138	1	1.05	0.95;
	10040	1	43.57	13.69	0	0	1	1	0	138	1	1.05	0.95;
	10041	1	20.08	9.93	0	0	1	1	0	138	1	1.05	0.95;
	10042	1	59.25	11.36	0	0	1	1	0	138	1	1.05	0.95;
	10043	1	0	0	0	0	1	1	0	138	1	1.05	0.95;
	10044	1	37.54	1.74	0	0	1	1	0	138	1	1.05	0.95;
	10045	1	25.35	12.91	0	0	1	1	0	138	1	1.05	0.95;
	10046	1	0	0	0	0	1	1	0	138	1	1.05	0.95;
	10047	1	45.76	5.94	0	0	1	1	0	138	1	1.05	0.95;
	10048	1	45.76	10.24	0	0	1	1	0	138	1	1.05	0.95;
	10049	1	0	0	0	0	1	1	0	138	1	1.05	0.95;
	10050	1	0	0	0	0	1	1	0	138	1	1.05	0.95;
	10051	1	0	0	0	0	1	1	0	138	1	1.05	0.95;
	10052	1	17.51	1.94	0	0	1	1	0	138	1	1.05	0.95;
	10053	1	43.68	4.56	0	0	1	1	0	138	1	1.05	0.95;
	10054	1	43.32	16.13	0	0	1	1	0	138	1	1.05	0.95;
	10055	1	17.57	5.16	0	0	1	1	0	138	1	1.05	0.95;
	10056	1	0	0	0	0	1	1	0	138	1	1.05	0.95;
	10057	1	0	0	0	0	1	1	0	345	1	1.05	0.95;
	10058	1	43.93	8.14	0	0	1	1	0	138	1	1.05	0.95;
	10059	1	0	0	0	0	1	1	0	345	1	1.05	0.95;
	10060	1	43.93	27.62	0	0	1	1	0	138	1	1.05	0.95;
	10061	1	51.07	18.71	0	22	1	1	0	138	1	1.05	0.95;
	10062	1	0	0	0	0	1	1	0	138	1	1.05	0.95;
	10063	1	0	0	0	0	1	1	0	138	1	1.05	0.95;
	10064	1	36.24	9.3	0	0	1	1	0	138	1	1.05	0.95;
	10065	1	46.26	6.82	0	0	1	1	0	138	1	1.05	0.95;
	10066	1	0	0	0	0	1	1	0	13.8	1	1.05	0.95;
	10067	1	0	0	0	0	1	1	0	13.8	1	1.05	0.95;
	10068	1	0	0	0	0	1	1	0	1	1	1.05	0.95;
	10069	1	58.86	14.48	0	0	1	1	0	138	1	1.05	0.95;
	10070	1	11.07	0.16	0	0	1	1	0	138	1	1.05	0.95;
	10071	1	38.37	10.34	0	0	1	1	0	138	1	1.05	0.95;
	10072	1	0	0	0	0	1	1	0	138	1	1.05	0.95;
	10073	1	38.37	20.18	0	0	1	1	0	138	1	1.05	0.95;
	10074	1	0	0	0	0	1	1	0	138	1	1.05	0.95;
	10075	1	14.72	4.64	0	0	1	1	0	138	1	1.05	0.95;
	10076	1	27.96	2.98	0	0	1	1	0	138	1	1.05	0.95;
	10077	1	28.46	7.93	0	0	1	1	0	138	1	1.05	0.95;
	10078	1	0	0	0	0	1	1	0	345	1	1.05	0.95;
	10079	1	55.86	12.51	0	0	1	1	0	138	1	1.05	0.95;
	10080	1	0	0	0	0	1	1	0	24	1	1.05	0.95;
	10081	1	0	0	0	0	1	1	0	1	1	1.05	0.95;
	10082	1	0	0	0	0	1	1	0	138	1	1.05	0.95;
	10083	1	22.32	8.77	0	0	1	1	0	138	1	1.05	0.95;
	10084	1	0	0	0	0	1	1	0	138	1	1.05	0.95;
	10085	1	40.86	5.87	0	0	1	1	0	138	1	1.05	0.95;
	10086	1	0	0	0	0	1	1	0	138	1	1.05	0.95;
	10087	1	10.87	8.58	0	0	1	1	0	138	1	1.05	0.95;
	10088	1	0	0	0	0	1	1	0	138	1	1.05	0.95;
	10089	1	33.23	4.19	0	0	1	1	0	138	1	1.05	0.95;
	10090	1	33.23	6.75	0	0	1	1	0	138	1	1.05	0.95;
	10091	1	37.67	4.7	0	0	1	1	0	138	1	1.05	0.95;
	10092	1	31.46	1.7	0	0	1	1	0	138	1	1.05	0.95;
	10093	1	31.46	11.16	0	0	1	1	0	138	1	1.05	0.95;
	10094	1	0	0	0	0	1	1	0	138	1	1.05	0.95;
	10095	1	0	0	0	0	1	1	0	138	1	1.05	0.95;
	10096	1	18.02	4.43	0	0	1	1	0	138	1	1.05	0.95;
	10097	1	31.02	5.28	0	0	1	1	0	138	1	1.05	0.95;
	10098	1	19.84	5.6	0	0	1	1	0	138	1	1.05	0.95;
	10099	1	0	0	0	0	1	1	0	138	1	1.05	0.95;
	10100	1	0	0	0	0	1	1	0	138	1	1.05	0.95;
	10101	1	0	0	0	0	1	1	0	138	1	1.05	0.95;
	10102	1	33.88	8.27	0	0	1	1	0	138	1	1.05	0.95;
	10103	1	0	0	0	0	1	1	0	138	1	1.05	0.95;
	10104	1	57.74	17.1	0	0	1	1	0	138	1	1.05	0.95;
	10105	1	0	0	0	0	1	1	0	138	1	1.05	0.95;
	10106	1	51.34	13.64	0	0	1	1	0	138	1	1.05	0.95;
	10107	1	26.95	1.82	0	0	1	1	0	138	1	1.05	0.95;
	10108	1	0	0	0	0	1	1	0	138	1	1.05	0.95;
	10109	1	0	0	0	0	1	1	0	138	1	1.05	0.95;
	10110	1	12.48	4.31	0	0	1	1	0	138	1	1.05	0.95;
	10111	1	0	0	0	0	1	1	0	138	1	1.05	0.95;
	10112	1	11.2	2.7	0	0	1	1	0	138	1	1.05	0.95;
	10113	1	0	0	0	0	1	1	0	138	1	1.05	0.95;
	10114	1	31.06	13.53	0	0	1	1	0	138	1	1.05	0.95;
	10115	1	31.06	11.74	0	0	1	1	0	138	1	1.05	0.95;
	10116	1	47.94	5.39	0	0	1	1	0	138	1	1.05	0.95;
	10117	1	0	0	0	0	1	1	0	345	1	1.05	0.95;
	10118	1	45.39	21.63	0	0	1	1	0	138	1	1.05	0.95;
	10119	1	0	0	0	0	1	1	0	13.8	1	1.05	0.95;
	10120	1	0	0	0	0	1	1	0	1	1	1.05	0.95;
	10121	1	0	0	0	0	1	1	0	138	1	1.05	0.95;
	10122	1	35.43	19.18	0	0	1	1	0	138	1	1.05	0.95;
	10123	1	0	0	0	0	1	1	0	138	1	1.05	0.95;
	10124	1	0	0	0	0	1	1	0	138	1	1.05	0.95;
	10125	1	35.43	7.06	0	0	1	1	0	138	1	1.05	0.95;
	10126	1	0	0	0	0	1	1	0	138	1	1.05	0.95;
	10127	1	0	0	0	0	1	1	0	345	1	1.05	0.95;
	10128	1	44.89	16.27	0	0	1	1	0	138	1	1.05	0.95;
	10129	1	50.09	14.75	0	0	1	1	0	138	1	1.05	0.95;
	10130	1	50.09	14.37	0	0	1	1	0	138	1	1.05	0.95;
	10131	1	0	0	0	0	1	1	0	138	1	1.05	0.95;
	10132	1	41.72	12.38	0	0	1	1	0	138	1	1.05	0.95;
	10133	1	0	0	0	0	1	1	0	138	1	1.05	0.95;
	10134	1	71.03	8.23	0	0	1	1	0	138	1	1.05	0.95;
	10135	1	61.01	13.93	0	0	1	1	0	138	1	1.05	0.95;
	10136	1	0	0	0	0	1	1	0	138	1	1.05	0.95;
	10137	1	20.07	5.15	0	0	1	1	0	138	1	1.05	0.95;
	10138	1	38.05	7.43	0	0	1	1	0	138	1	1.05	0.95;
	10139	1	35	8.78	0	0	1	1	0	138	1	1.05	0.95;
	10140	1	16.07	5.79	0	0	1	1	0	138	1	1.05	0.95;
	10141	1	41.11	16.66	0	0	1	1	0	138	1	1.05	0.95;
	10142	1	41.11	1.31	0	0	1	1	0	138	1	1.05	0.95;
	10143	1	0	0	0	0	1	1	0	138	1	1.05	0.95;
	10144	1	0	0	0	0	1	1	0	138	1	1.05	0.95;
	10145	1	37.97	9.24	0	0	1	1	0	138	1	1.05	0.95;
	10146	1	37.97	9.3	0	0	1	1	0	138	1	1.05	0.95;
	10147	1	0	0	0	0	1	1	0	138	1	1.05	0.95;
	10148	1	52.25	24.72	0	0	1	1	0	138	1	1.05	0.95;
	10149	1	0	0	0	0	1	1	0	138	1	1.05	0.95;
	10150	1	7.99	4.67	0	0	1	1	0	18	1	1.05	0.95;
	10151	1	11.73	1.24	0	0	1	1	0	18	1	1.05	0.95;
	10152	1	0	0	0	0	1	1	0	1	1	1.05	0.95;
	10153	1	35.35	3.89	0	0	1	1	0	138	1	1.05	0.95;
	10154	1	33.06	13.11	0	0	1	1	0	138	1	1.05	0.95;
	10155	1	0	0	0	0	1	1	0	138	1	1.05	0.95;
	10156	1	33.52	4.02	0	0	1	1	0	138	1	1.05	0.95;
	10157	1	32.33	10.35	0	80	1	1	0	138	1	1.05	0.95;
	10158	1	0	0	0	0	1	1	0	138	1	1.05	0.95;
	10159	1	15.22	4.81	0	0	1	1	0	138	1	1.05	0.95;
	10160	1	55.26	20.75	0	0	1	1	0	138	1	1.05	0.95;
	10161	1	0	0	0	0	1	1	0	138	1	1.05	0.95;
	10162	1	25.6	5.53	0	0	1	1	0	138	1	1.05	0.95;
	10163	1	0	0	0	0	1	1	0	138	1	1.05	0.95;
	10164	1	26.64	6.54	0	0	1	1	0	138	1	1.05	0.95;
	10165	1	0	0	0	0	1	1	0	138	1	1.05	0.95;
	10166	1	47.72	5.4	0	0	1	1	0	138	1	1.05	0.95;
	10167	1	32.36	10.77	0	0	1	1	0	138	1	1.05	0.95;
	10168	1	32.36	10.63	0	0	1	1	0	138	1	1.05	0.95;
	10169	1	0	0	0	0	1	1	0	138	1	1.05	0.95;
	10170	1	14.51	0.92	0	0	1	1	0	138	1	1.05	0.95;
	10171	1	51.86	8.23	0	0	1	1	0	138	1	1.05	0.95;
	10172	1	0	0	0	0	1	1	0	138	1	1.05	0.95;
	10173	1	0	0	0	0	1	1	0	138	1	1.05	0.95;
	10174	1	41.08	5.55	0	0	1	1	0	138	1	1.05	0.95;
	10175	1	41.08	12.71	0	0	1	1	0	138	1	1.05	0.95;
	10176	1	0	0	0	0	1	1	0	138	1	1.05	0.95;
	10177	1	37	12.28	0	0	1	1	0	138	1	1.05	0.95;
	10178	1	37	6.33	0	0	1	1	0	138	1	1.05	0.95;
	10179	1	55.41	4.59	0	0	1	1	0	138	1	1.05	0.95;
	10180	1	1.46	0.56	0	0	1	1	0	138	1	1.05	0.95;
	10181	1	0	0	0	0	1	1	0	138	1	1.05	0.95;
	10182	1	55.41	4.8	0	0	1	1	0	138	1	1.05	0.95;
	10183	1	48.59	5.25	0	0	1	1	0	138	1	1.05	0.95;
	10184	1	0	0	0	0	1	1	0	138	1	1.05	0.95;
	10185	1	68.06	27.25	0	0	1	1	0	138	1	1.05	0.95;
	10186	1	0	0	0	0	1	1	0	138	1	1.05	0.95;
	10187	1	37.59	7.22	0	0	1	1	0	138	1	1.05	0.95;
	10188	1	51.74	17.55	0	0	1	1	0	138	1	1.05	0.95;
	10189	1	0	0	0	0	1	1	0	138	1	1.05	0.95;
	10190	1	0	0	0	0	1	1	0	138	1	1.05	0.95;
	10191	1	63.47	6.05	0	0	1	1	0	138	1	1.05	0.95;
	10192	1	0	0	0	0	1	1	0	345	1	1.05	0.95;
	10193	1	63.47	25.63	0	0	1	1	0	138	1	1.05	0.95;
	10194	1	0	0	0	0	1	1	0	24	1	1.05	0.95;
	10195	1	0	0	0	0	1	1	0	1	1	1.05	0.95;
	10196	1	0	0	0	0	1	1	0	345	1	1.05	0.95;
	10197	1	0	0	0	0	1	1	0	138	1	1.05	0.95;
	10198	1	55.17	29.09	0	0	1	1	0	345	1	1.05	0.95;
	10199	1	25.51	11.27	0	0	1	1	0	138	1	1.05	0.95;
	10200	1	57.98	19.56	0	0	1	1	0	138	1	1.05	0.95;
	10201	1	45.34	7.86	0	0	1	1	0	138	1	1.05	0.95;
	10202	1	21.66	3.34	0	0	1	1	0	138	1	1.05	0.95;
	10203	1	0	0	0	0	1	1	0	138	1	1.05	0.95;
	10204	1	12.67	2.56	0	0	1	1	0	138	1	1.05	0.95;
	10205	1	0	0	0	0	1	1	0	138	1	1.05	0.95;
	10206	1	40.75	8.43	0	0	1	1	0	138	1	1.05	0.95;
	10207	1	40.75	6.92	0	0	1	1	0	138	1	1.05	0.95;
	10208	1	24.17	6.6	0	0	1	1	0	138	1	1.05	0.95;
	10209	1	81.39	49.51	0	0	1	1	0	138	1	1.05	0.95;
	10210	1	49.48	10.28	0	0	1	1	0	138	1	1.05	0.95;
	10211	1	49.48	11.08	0	0	1	1	0	138	1	1.05	0.95;
	10212	1	0	0	0	0	1	1	0	138	1	1.05	0.95;
	10213	1	0	0	0	0	1	1	0	138	1	1.05	0.95;
	10214	1	12.52	3.35	0	0	1	1	0	138	1	1.05	0.95;
	10215	1	36.39	3.34	0	0	1	1	0	138	1	1.05	0.95;
	10216	1	0	0	0	0	1	1	0	138	1	1.05	0.95;
	10217	1	36.39	3.13	0	0	1	1	0	138	1	1.05	0.95;
	10218	1	30.67	6.45	0	90	1	1	0	138	1	1.05	0.95;
	10219	1	38.5	11.16	0	0	1	1	0	138	1	1.05	0.95;
	10220	1	0	0	0	0	1	1	0	138	1	1.05	0.95;
	10221	1	38.5	7.16	0	0	1	1	0	138	1	1.05	0.95;
	10222	1	0	0	0	0	1	1	0	138	1	1.05	0.95;
	10223	1	9.41	2.94	0	0	1	1	0	138	1	1.05	0.95;
	10224	1	0	0	0	0	1	1	0	138	1	1.05	0.95;
	10225	1	35.59	23.47	0	0	1	1	0	138	1	1.05	0.95;
	10226	1	35.59	19.12	0	0	1	1	0	138	1	1.05	0.95;
	10227	1	47.25	13.43	0	0	1	1	0	138	1	1.05	0.95;
	10228	1	53.38	19.97	0	0	1	1	0	138	1	1.05	0.95;
	10229	1	35.45	4.71	0	50	1	1	0	138	1	1.05	0.95;
	10230	1	51.81	10.71	0	0	1	1	0	138	1	1.05	0.95;
	10231	1	51.81	15.83	0	0	1	1	0	138	1	1.05	0.95;
	10232	1	48.36	11.43	0	0	1	1	0	138	1	1.05	0.95;
	10233	1	0	0	0	0	1	1	0	138	1	1.05	0.95;
	10234	1	37.64	3.83	0	0	1	1	0	138	1	1.05	0.95;
	10235	1	0	0	0	0	1	1	0	138	1	1.05	0.95;
	10236	1	37.64	13.28	0	0	1	1	0	138	1	1.05	0.95;
	10237	1	33.48	6.19	0	0	1	1	0	138	1	1.05	0.95;
	10238	1	33.48	8.37	0	0	1	1	0	138	1	1.05	0.95;
	10239	1	50.01	9.84	0	0	1	1	0	138	1	1.05	0.95;
	10240	1	0	0	0	0	1	1	0	138	1	1.05	0.95;
	10241	1	50.75	10.16	0	0	1	1	0	138	1	1.05	0.95;
	10242	1	0	0	0	60	1	1	0	138	1	1.05	0.95;
	10243	1	45.67	5.61	0	0	1	1	0	138	1	1.05	0.95;
	10244	1	34.46	5.65	0	0	1	1	0	138	1	1.05	0.95;
	10245	1	34.46	8.68	0	0	1	1	0	138	1	1.05	0.95;
	10246	1	0	0	0	0	1	1	0	138	1	1.05	0.95;
	10247	1	41.16	3.94	0	0	1	1	0	138	1	1.05	0.95;
	10248	1	43.93	29.92	0	0	1	1	0	138	1	1.05	0.95;
	10249	1	50.49	5.58	0	0	1	1	0	138	1	1.05	0.95;
	10250	1	57.01	12.84	0	0	1	1	0	138	1	1.05	0.95;
	10251	1	57.01	22.38	0	0	1	1	0	138	1	1.05	0.95;
	10252	1	31.11	9.46	0	0	1	1	0	138	1	1.05	0.95;
	10253	1	0	0	0	0	1	1	0	138	1	1.05	0.95;
	10254	1	31.11	19.53	0	0	1	1	0	138	1	1.05	0.95;
	10255	1	0	0	0	0	1	1	0	138	1	1.05	0.95;
	10256	1	0	0	0	0	1	1	0	138	1	1.05	0.95;
	10257	1	24.34	12.59	0	0	1	1	0	138	1	1.05	0.95;
	10258	1	0	0	0	0	1	1	0	138	1	1.05	0.95;
	10259	1	48.72	8.04	0	0	1	1	0	138	1	1.05	0.95;
	10260	1	30.31	12.35	0	0	1	1	0	138	1	1.05	0.95;
	10261	1	0	0	0	0	1	1	0	138	1	1.05	0.95;
	10262	1	54.9	12.07	0	0	1	1	0	138	1	1.05	0.95;
	10263	1	35.69	9.54	0	0	1	1	0	138	1	1.05	0.95;
	10264	1	0	0	0	0	1	1	0	138	1	1.05	0.95;
	10265	1	0	0	0	0	1	1	0	138	1	1.05	0.95;
	10266	1	49.72	2.39	0	0	1	1	0	138	1	1.05	0.95;
	10267	1	23.27	4.11	0	0	1	1	0	138	1	1.05	0.95;
	10268	1	0	0	0	0	1	1	0	138	1	1.05	0.95;
	10269	1	53.47	13.72	0	0	1	1	0	138	1	1.05	0.95;
	10270	1	0	0	0	0	1	1	0	138	1	1.05	0.95;
	10271	1	53.47	7.16	0	0	1	1	0	138	1	1.05	0.95;
	10272	1	55.09	7.78	0	0	1	1	0	138	1	1.05	0.95;
	10273	1	55.09	20.54	0	0	1	1	0	138	1	1.05	0.95;
	10274	1	24.57	5.95	0	0	1	1	0	138	1	1.05	0.95;
	10275	1	0	0	0	0	1	1	0	345	1	1.05	0.95;
	10276	1	43.11	11.41	0	0	1	1	0	138	1	1.05	0.95;
	10277	1	44.92	20.45	0	0	1	1	0	138	1	1.05	0.95;
	10278	1	0	0	0	0	1	1	0	138	1	1.05	0.95;
	10279	1	28.63	8.04	0	0	1	1	0	138	1	1.05	0.95;
	10280	1	0	0	0	0	1	1	0	138	1	1.05	0.95;
	10281	1	0	0	0	0	1	1	0	138	1	1.05	0.95;
	10282	1	0	0	0	0	1	1	0	138	1	1.05	0.95;
	10283	1	32.97	7.88	0	0	1	1	0	138	1	1.05	0.95;
	10284	1	0	0	0	0	1	1	0	138	1	1.05	0.95;
	10285	1	24.02	1.73	0	0	1	1	0	138	1	1.05	0.95;
	10286	1	53.39	18	0	0	1	1	0	138	1	1.05	0.95;
	10287	1	0	0	0	0	1	1	0	138	1	1.05	0.95;
	10288	1	49.12	9.58	0	0	1	1	0	138	1	1.05	0.95;
	10289	1	32.24	3.8	0	0	1	1	0	138	1	1.05	0.95;
	10290	1	32.24	4.22	0	0	1	1	0	138	1	1.05	0.95;
	10291	1	0	0	0	0	1	1	0	138	1	1.05	0.95;
	10292	1	49.81	3.13	0	0	1	1	0	138	1	1.05	0.95;
	10293	1	52.98	28.47	0	0	1	1	0	138	1	1.05	0.95;
	10294	1	52.98	12.34	0	0	1	1	0	138	1	1.05	0.95;
	10295	1	0	0	0	0	1	1	0	138	1	1.05	0.95;
	10296	1	56.71	7.15	0	0	1	1	0	138	1	1.05	0.95;
	10297	1	0	0	0	0	1	1	0	138	1	1.05	0.95;
	10298	1	0	0	0	0	1	1	0	138	1	1.05	0.95;
	10299	1	41.5	28.64	0	0	1	1	0	138	1	1.05	0.95;
	10300	1	0	0	0	0	1	1	0	138	1	1.05	0.95;
	10301	1	50.57	7.59	0	0	1	1	0	138	1	1.05	0.95;
	10302	1	0	0	0	50	1	1	0	138	1	1.05	0.95;
	10303	1	0	0	0	0	1	1	0	138	1	1.05	0.95;
	10304	1	0	0	0	0	1	1	0	138	1	1.05	0.95;
	10305	1	47.86	19.46	0	0	1	1	0	138	1	1.05	0.95;
	10306	1	60.83	25.54	0	0	1	1	0	138	1	1.05	0.95;
	10307	1	48.61	20.93	0	0	1	1	0	138	1	1.05	0.95;
	10308	1	0	0	0	0	1	1	0	138	1	1.05	0.95;
	10309	1	39.33	13.63	0	0	1	1	0	138	1	1.05	0.95;
	10310	1	39.33	5.55	0	0	1	1	0	138	1	1.05	0.95;
	10311	1	0	0	0	0	1	1	0	138	1	1.05	0.95;
	10312	1	40.48	22.08	0	0	1	1	0	138	1	1.05	0.95;
	10313	1	0	0	0	0	1	1	0	138	1	1.05	0.95;
	10314	1	40.48	8.05	0	93.5	1	1	0	138	1	1.05	0.95;
	10315	1	44.5	8.52	0	0	1	1	0	138	1	1.05	0.95;
	10316	1	44.5	7.51	0	0	1	1	0	138	1	1.05	0.95;
	10317	1	0	0	0	0	1	1	0	138	1	1.05	0.95;
	10318	1	37.74	7.21	0	0	1	1	0	138	1	1.05	0.95;
	10319	1	0	0	0	0	1	1	0	138	1	1.05	0.95;
	10320	1	37.74	9.18	0	0	1	1	0	138	1	1.05	0.95;
	10321	1	32.26	13.89	0	0	1	1	0	138	1	1.05	0.95;
	10322	1	32.26	6.52	0	0	1	1	0	138	1	1.05	0.95;
	10323	1	50.58	11.16	0	0	1	1	0	138	1	1.05	0.95;
	10324	1	32.27	4.42	0	0	1	1	0	138	1	1.05	0.95;
	10325	1	0	0	0	0	1	1	0	138	1	1.05	0.95;
	10326	1	32.27	7.92	0	0	1	1	0	138	1	1.05	0.95;
	10327	1	0	0	0	0	1	1	0	138	1	1.05	0.95;
	10328	1	52.71	7.81	0	0	1	1	0	138	1	1.05	0.95;
	10329	1	0	0	0	0	1	1	0	138	1	1.05	0.95;
	10330	1	0	0	0	0	1	1	0	345	1	1.05	0.95;
	10331	1	0	0	0	0	1	1	0	138	1	1.05	0.95;
	10332	1	52.71	12.35	0	0	1	1	0	345	1	1.05	0.95;
	10333	1	0	0	0	0	1	1	0	345	1	1.05	0.95;
	10334	1	55.45	10.21	0	0	1	1	0	138	1	1.05	0.95;
	10335	1	0	0	0	0	1	1	0	13.8	1	1.05	0.95;
	10336	1	0	0	0	0	1	1	0	13.8	1	1.05	0.95;
	10337	1	0	0	0	0	1	1	0	1	1	1.05	0.95;
	10338	1	55.45	18.16	0	0	1	1	0	138	1	1.05	0.95;
	10339	1	43.2	7.24	0	0	1	1	0	138	1	1.05	0.95;
	10340	1	0	0	0	0	1	1	0	138	1	1.05	0.95;
	10341	1	0	0	0	0	1	1	0	138	1	1.05	0.95;
	10342	1	43.2	9.42	0	0	1	1	0	138	1	1.05	0.95;
	10343	1	0	0	0	0	1	1	0	138	1	1.05	0.95;
	10344	1	87.17	16.32	0	0	1	1	0	138	1	1.05	0.95;
	10345	1	0	0	0	0	1	1	0	138	1	1.05	0.95;
	10346	1	0	0	0	0	1	1	0	345	1	1.05	0.95;
	10347	1	0	0	0	0	1	1	0	138	1	1.05	0.95;
	10348	1	55.47	9.35	0	0	1	1	0	13.8	1	1.05	0.95;
	10349	1	0	0	0	0	1	1	0	1	1	1.05	0.95;
	10350	1	0	0	0	0	1	1	0	13.8	1	1.05	0.95;
	10351	1	0	0	0	0	1	1	0	13.8	1	1.05	0.95;
	10352	1	0	0	0	0	1	1	0	1	1	1.05	0.95;
	10353	1	0	0	0	0	1	1	0	345	1	1.05	0.95;
	10354	1	51.28	15.06	0	100	1	1	0	138	1	1.05	0.95;
	10355	1	51.28	18.03	0	0	1	1	0	138	1	1.05	0.95;
	10356	1	35.97	3.79	0	0	1	1	0	138	1	1.05	0.95;
	10357	1	0	0	0	0	1	1	0	138	1	1.05	0.95;
	10358	1	35.97	3.43	0	0	1	1	0	18	1	1.05	0.95;
	10359	1	0	0	0	0	1	1	0	18	1	1.05	0.95;
	10360	1	0	0	0	0	1	1	0	1	1	1.05	0.95;
	10361	1	53.94	6.22	0	0	1	1	0	138	1	1.05	0.95;
	10362	1	38.29	10.72	0	0	1	1	0	138	1	1.05	0.95;
	10363	1	38.29	29.64	0	0	1	1	0	138	1	1.05	0.95;
	10364	1	0	0	0	0	1	1	0	138	1	1.05	0.95;
	10365	1	0	0	0	0	1	1	0	138	1	1.05	0.95;
	10366	1	44.83	11.69	0	0	1	1	0	138	1	1.05	0.95;
	10367	1	44.83	13.25	0	0	1	1	0	138	1	1.05	0.95;
	10368	1	47.26	13.83	0	0	1	1	0	138	1	1.05	0.95;
	10369	1	0	0	0	0	1	1	0	345	1	1.05	0.95;
	10370	1	47.26	2.96	0	0	1	1	0	138	1	1.05	0.95;
	10371	1	0	0	0	0	1	1	0	138	1	1.05	0.95;
	10372	1	40.62	5.33	0	0	1	1	0	138	1	1.05	0.95;
	10373	1	0	0	0	0	1	1	0	138	1	1.05	0.95;
	10374	1	40.62	8.43	0	0	1	1	0	138	1	1.05	0.95;
	10375	1	0	0	0	0	1	1	0	138	1	1.05	0.95;
	10376	1	49.01	10.14	0	0	1	1	0	138	1	1.05	0.95;
	10377	1	57.82	24.92	0	0	1	1	0	138	1	1.05	0.95;
	10378	1	0	0	0	0	1	1	0	138	1	1.05	0.95;
	10379	1	50.93	12.13	0	0	1	1	0	138	1	1.05	0.95;
	10380	1	32.62	5.86	0	0	1	1	0	138	1	1.05	0.95;
	10381	1	32.62	8.33	0	0	1	1	0	138	1	1.05	0.95;
	10382	1	0	0	0	0	1	1	0	138	1	1.05	0.95;
	10383	1	0	0	0	0	1	1	0	138	1	1.05	0.95;
	10384	1	54.48	37.07	0	0	1	1	0	138	1	1.05	0.95;
	10385	1	41.22	10.4	0	0	1	1	0	138	1	1.05	0.95;
	10386	1	0	0	0	0	1	1	0	138	1	1.05	0.95;
	10387	1	0	0	0	0	1	1	0	138	1	1.05	0.95;
	10388	1	0	0	0	0	1	1	0	138	1	1.05	0.95;
	10389	1	41.22	19.48	0	0	1	1	0	138	1	1.05	0.95;
	10390	1	25.11	4.34	0	0	1	1	0	138	1	1.05	0.95;
	10391	1	0	0	0	0	1	1	0	138	1	1.05	0.95;
	10392	1	25.47	2.38	0	0	1	1	0	138	1	1.05	0.95;
	10393	1	37.98	4.75	0	0	1	1	0	138	1	1.05	0.95;
	10394	1	37.98	9.65	0	0	1	1	0	138	1	1.05	0.95;
	10395	1	48.49	17.77	0	0	1	1	0	138	1	1.05	0.95;
	10396	1	48.49	9.62	0	0	1	1	0	138	1	1.05	0.95;
	10397	1	35.5	8.68	0	0	1	1	0	138	1	1.05	0.95;
	10398	1	35.5	11.17	0	60	1	1	0	138	1	1.05	0.95;
	10399	1	0	0	0	0	1	1	0	138	1	1.05	0.95;
	10400	1	32.07	7.22	0	0	1	1	0	138	1	1.05	0.95;
	10401	1	0	0	0	0	1	1	0	138	1	1.05	0.95;
	10402	1	0	0	0	0	1	1	0	138	1	1.05	0.95;
	10403	1	0	0	0	0	1	1	0	138	1	1.05	0.95;
	10404	1	32.07	11.04	0	0	1	1	0	138	1	1.05	0.95;
	10405	1	0	0	0	0	1	1	0	138	1	1.05	0.95;
	10406	1	33.54	8.62	0	0	1	1	0	138	1	1.05	0.95;
	10407	1	33.54	15.69	0	0	1	1	0	138	1	1.05	0.95;
	10408	1	35.05	12.77	0	0	1	1	0	138	1	1.05	0.95;
	10409	1	35.05	11.96	0	0	1	1	0	138	1	1.05	0.95;
	10410	1	52.57	23.04	0	0	1	1	0	138	1	1.05	0.95;
	10411	1	61.36	11.11	0	0	1	1	0	138	1	1.05	0.95;
	10412	1	0	0	0	0	1	1	0	138	1	1.05	0.95;
	10413	1	61.36	11.21	0	0	1	1	0	138	1	1.05	0.95;
	10414	1	0	0	0	0	1	1	0	345	1	1.05	0.95;
	10415	1	40.52	24.05	0	0	1	1	0	138	1	1.05	0.95;
	10416	1	40.52	14.96	0	0	1	1	0	138	1	1.05	0.95;
	10417	1	43.9	2.47	0	0	1	1	0	138	1	1.05	0.95;
	10418	1	0	0	0	0	1	1	0	138	1	1.05	0.95;
	10419	1	43.9	15.15	0	0	1	1	0	138	1	1.05	0.95;
	10420	1	41.21	22.17	0	0	1	1	0	138	1	1.05	0.95;
	10421	1	41.21	6.01	0	0	1	1	0	138	1	1.05	0.95;
	10422	1	0	0	0	0	1	1	0	138	1	1.05	0.95;
	10423	1	38.99	8.09	0	0	1	1	0	138	1	1.05	0.95;
	10424	1	0	0	0	0	1	1	0	138	1	1.05	0.95;
	10425	1	38.99	9.09	0	0	1	1	0	138	1	1.05	0.95;
	10426	1	62.16	9.98	0	56	1	1	0	138	1	1.05	0.95;
	10427	1	0	0	0	0	1	1	0	345	1	1.05	0.95;
	10428	1	0	0	0	0	1	1	0	138	1	1.05	0.95;
	10429	1	62.16	12.77	0	0	1	1	0	345	1	1.05	0.95;
	10430	1	42.51	5.9	0	48	1	1	0	138	1	1.05	0.95;
	10431	1	0	0	0	0	1	1	0	138	1	1.05	0.95;
	10432	1	0	0	0	0	1	1	0	345	1	1.05	0.95;
	10433	1	54.76	7.6	0	0	1	1	0	138	1	1.05	0.95;
	10434	1	53.17	5.38	0	0	1	1	0	138	1	1.05	0.95;
	10435	1	28.73	8.08	0	0	1	1	0	138	1	1.05	0.95;
	10436	1	43.64	7.6	0	0	1	1	0	138	1	1.05	0.95;
	10437	1	0	0	0	0	1	1	0	138	1	1.05	0.95;
	10438	1	43.64	10.24	0	0	1	1	0	138	1	1.05	0.95;
	10439	1	29.48	5.61	0	0	1	1	0	138	1	1.05	0.95;
	10440	1	55.08	4.05	0	0	1	1	0	138	1	1.05	0.95;
	10441	1	55.08	5.02	0	60.5	1	1	0	138	1	1.05	0.95;
	10442	1	40.3	12.76	0	0	1	1	0	138	1	1.05	0.95;
	10443	1	0	0	0	0	1	1	0	138	1	1.05	0.95;
	10444	1	0	0	0	0	1	1	0	138	1	1.05	0.95;
	10445	1	59.73	15.82	0	0	1	1	0	138	1	1.05	0.95;
	10446	1	0	0	0	0	1	1	0	138	1	1.05	0.95;
	10447	1	0	0	0	0	1	1	0	138	1	1.05	0.95;
	10448	1	53.55	15.86	0	0	1	1	0	138	1	1.05	0.95;
	10449	1	47.78	4.79	0	0	1	1	0	138	1	1.05	0.95;
	10450	1	0	0	0	0	1	1	0	138	1	1.05	0.95;
	10451	1	47.78	18.82	0	0	1	1	0	138	1	1.05	0.95;
	10452	1	50.33	5.55	0	0	1	1	0	138	1	1.05	0.95;
	10453	1	50.33	14.91	0	0	1	1	0	138	1	1.05	0.95;
	10454	1	0	0	0	0	1	1	0	138	1	1.05	0.95;
	10455	1	0	0	0	0	1	1	0	138	1	1.05	0.95;
	10456	1	58.98	25.25	0	0	1	1	0	138	1	1.05	0.95;
	10457	1	17.46	1.18	0	0	1	1	0	138	1	1.05	0.95;
	10458	1	70.13	13.31	0	0	1	1	0	138	1	1.05	0.95;
	10459	1	0	0	0	0	1	1	0	345	1	1.05	0.95;
	10460	1	70.13	15.64	0	0	1	1	0	138	1	1.05	0.95;
	10461	1	52.41	15	0	0	1	1	0	138	1	1.05	0.95;
	10462	1	0	0	0	0	1	1	0	345	1	1.05	0.95;
	10463	1	64.47	17.04	0	0	1	1	0	138	1	1.05	0.95;
	10464	1	41.36	15.05	0	0	1	1	0	138	1	1.05	0.95;
	10465	1	42.13	18.04	0	0	1	1	0	138	1	1.05	0.95;
	10466	1	33.55	5.09	0	0	1	1	0	138	1	1.05	0.95;
	10467	1	33.55	12.49	0	0	1	1	0	138	1	1.05	0.95;
	10468	1	0	0	0	0	1	1	0	345	1	1.05	0.95;
	10469	1	58.59	7.63	0	0	1	1	0	138	1	1.05	0.95;
	10470	1	36.63	3.01	0	0	1	1	0	138	1	1.05	0.95;
	10471	1	0	0	0	0	1	1	0	138	1	1.05	0.95;
	10472	1	0	0	0	0	1	1	0	138	1	1.05	0.95;
	10473	1	0	0	0	0	1	1	0	138	1	1.05	0.95;
	10474	1	36.63	6.44	0	0	1	1	0	138	1	1.05	0.95;
	10475	1	37.47	3.96	0	0	1	1	0	138	1	1.05	0.95;
	10476	1	6.89	1.75	0	0	1	1	0	138	1	1.05	0.95;
	10477	1	32.6	11.35	0	0	1	1	0	138	1	1.05	0.95;
	10478	1	0	0	0	0	1	1	0	138	1	1.05	0.95;
	10479	1	30.9	10.75	0	0	1	1	0	138	1	1.05	0.95;
	10480	1	0	0	0	0	1	1	0	138	1	1.05	0.95;
	10481	1	0	0	0	0	1	1	0	138	1	1.05	0.95;
	10482	1	30.9	2.31	0	0	1	1	0	138	1	1.05	0.95;
	10483	1	49.72	16.03	0	0	1	1	0	138	1	1.05	0.95;
	10484	1	45.08	3.55	0	31	1	1	0	138	1	1.05	0.95;
	10485	1	58.44	6.81	0	0	1	1	0	138	1	1.05	0.95;
	10486	1	31.37	21.7	0	0	1	1	0	138	1	1.05	0.95;
	10487	1	31.37	16.34	0	0	1	1	0	138	1	1.05	0.95;
	10488	1	39.26	18.94	0	0	1	1	0	138	1	1.05	0.95;
	10489	1	39.26	13.22	0	0	1	1	0	138	1	1.05	0.95;
	10490	1	0	0	0	0	1	1	0	138	1	1.05	0.95;
	10491	1	45.25	10.02	0	0	1	1	0	138	1	1.05	0.95;
	10492	1	37.41	10.09	0	0	1	1	0	138	1	1.05	0.95;
	10493	1	0	0	0	0	1	1	0	138	1	1.05	0.95;
	10494	1	9.47	1.36	0	0	1	1	0	138	1	1.05	0.95;
	10495	1	48.98	14.87	0	0	1	1	0	138	1	1.05	0.95;
	10496	1	0	0	0	0	1	1	0	138	1	1.05	0.95;
	10497	1	48.98	16.37	0	0	1	1	0	138	1	1.05	0.95;
	10498	1	0	0	0	0	1	1	0	138	1	1.05	0.95;
	10499	1	1.68	0.56	0	0	1	1	0	18	1	1.05	0.95;
	10500	1	50.37	11.17	0	0	1	1	0	18	1	1.05	0.95;
	10501	1	0	0	0	0	1	1	0	1	1	1.05	0.95;
	10502	1	13.56	1.62	0	0	1	1	0	138	1	1.05	0.95;
	10503	1	33.53	1.88	0	0	1	1	0	138	1	1.05	0.95;
	10504	1	33.53	3.41	0	0	1	1	0	138	1	1.05	0.95;
	10505	1	16.24	3.8	0	0	1	1	0	138	1	1.05	0.95;
	10506	1	0	0	0	0	1	1	0	138	1	1.05	0.95;
	10507	1	25.74	1.84	0	0	1	1	0	138	1	1.05	0.95;
	10508	1	0	0	0	0	1	1	0	138	1	1.05	0.95;
	10509	1	31.18	5.13	0	0	1	1	0	138	1	1.05	0.95;
	10510	1	0	0	0	0	1	1	0	138	1	1.05	0.95;
	10511	1	0	0	0	0	1	1	0	138	1	1.05	0.95;
	10512	1	0	0	0	0	1	1	0	138	1	1.05	0.95;
	10513	1	15.83	2.52	0	0	1	1	0	138	1	1.05	0.95;
	10514	1	21.06	8.19	0	0	1	1	0	138	1	1.05	0.95;
	10515	1	35.95	7.79	0	0	1	1	0	138	1	1.05	0.95;
	10516	1	11.97	1.4	0	0	1	1	0	138	1	1.05	0.95;
	10517	1	23.34	17.01	0	0	1	1	0	138	1	1.05	0.95;
	10518	1	5.11	0.62	0	0	1	1	0	138	1	1.05	0.95;
	10519	1	12.65	2.03	0	0	1	1	0	138	1	1.05	0.95;
	10520	1	0	0	0	0	1	1	0	138	1	1.05	0.95;
	10521	1	8.11	1.22	0	0	1	1	0	138	1	1.05	0.95;
	10522	1	0	0	0	0	1	1	0	138	1	1.05	0.95;
	10523	1	34.84	16.34	0	0	1	1	0	138	1	1.05	0.95;
	10524	1	23.34	3.55	0	0	1	1	0	138	1	1.05	0.95;
	10525	1	21.1	16.57	0	0	1	1	0	138	1	1.05	0.95;
	10526	1	17.1	4.79	0	0	1	1	0	138	1	1.05	0.95;
	10527	1	0	0	0	0	1	1	0	138	1	1.05	0.95;
	10528	1	5.59	0.92	0	0	1	1	0	138	1	1.05	0.95;
	10529	1	52.69	12.91	0	0	1	1	0	138	1	1.05	0.95;
	10530	1	42.29	8.9	0	0	1	1	0	138	1	1.05	0.95;
	10531	1	40.74	11.04	0	0	1	1	0	138	1	1.05	0.95;
	10532	1	0	0	0	0	1	1	0	138	1	1.05	0.95;
	10533	1	55.59	19.65	0	0	1	1	0	138	1	1.05	0.95;
	10534	1	0	0	0	0	1	1	0	345	1	1.05	0.95;
	10535	1	55.59	16.19	0	0	1	1	0	138	1	1.05	0.95;
	10536	1	36.42	8.13	0	0	1	1	0	138	1	1.05	0.95;
	10537	1	0	0	0	0	1	1	0	138	1	1.05	0.95;
	10538	1	0	0	0	0	1	1	0	138	1	1.05	0.95;
	10539	1	20.01	7.26	0	0	1	1	0	138	1	1.05	0.95;
	10540	1	36.29	3.17	0	0	1	1	0	138	1	1.05	0.95;
	10541	1	38.97	6.45	0	0	1	1	0	138	1	1.05	0.95;
	10542	1	36.2	17.16	0	0	1	1	0	138	1	1.05	0.95;
	10543	1	36.2	6.38	0	0	1	1	0	138	1	1.05	0.95;
	10544	1	0	0	0	0	1	1	0	138	1	1.05	0.95;
	10545	1	0	0	0	0	1	1	0	138	1	1.05	0.95;
	10546	1	0.57	0.07	0	0	1	1	0	138	1	1.05	0.95;
	10547	1	15.35	7.95	0	0	1	1	0	138	1	1.05	0.95;
	10548	1	0	0	0	0	1	1	0	138	1	1.05	0.95;
	10549	1	49.17	12.52	0	0	1	1	0	138	1	1.05	0.95;
	10550	1	49.17	17.55	0	0	1	1	0	138	1	1.05	0.95;
	10551	1	0	0	0	0	1	1	0	138	1	1.05	0.95;
	10552	1	5.68	0.75	0	0	1	1	0	138	1	1.05	0.95;
	10553	1	0	0	0	0	1	1	0	138	1	1.05	0.95;
	10554	1	31.74	3.14	0	0	1	1	0	138	1	1.05	0.95;
	10555	1	7.28	1.72	0	0	1	1	0	138	1	1.05	0.95;
	10556	1	0	0	0	0	1	1	0	138	1	1.05	0.95;
	10557	1	48.67	18.41	0	0	1	1	0	138	1	1.05	0.95;
	10558	1	38.11	10.15	0	0	1	1	0	138	1	1.05	0.95;
	10559	1	34.46	8.1	0	0	1	1	0	138	1	1.05	0.95;
	10560	1	0	0	0	0	1	1	0	138	1	1.05	0.95;
	10561	1	8.85	1.14	0	0	1	1	0	138	1	1.05	0.95;
	10562	1	0	0	0	0	1	1	0	138	1	1.05	0.95;
	10563	1	0	0	0	0	1	1	0	138	1	1.05	0.95;
	10564	1	16.95	2.75	0	0	1	1	0	138	1	1.05	0.95;
	10565	1	0	0	0	0	1	1	0	138	1	1.05	0.95;
	10566	1	10.06	4.84	0	0	1	1	0	138	1	1.05	0.95;
	10567	1	36.6	16.45	0	0	1	1	0	138	1	1.05	0.95;
	10568	1	0	0	0	0	1	1	0	138	1	1.05	0.95;
	10569	1	0	0	0	0	1	1	0	138	1	1.05	0.95;
	10570	1	28.08	3.85	0	0	1	1	0	138	1	1.05	0.95;
	10571	1	11.76	7.06	0	0	1	1	0	138	1	1.05	0.95;
	10572	1	0	0	0	0	1	1	0	138	1	1.05	0.95;
	10573	1	20.36	2.82	0	0	1	1	0	138	1	1.05	0.95;
	10574	1	31.66	9.26	0	0	1	1	0	138	1	1.05	0.95;
	10575	1	0	0	0	0	1	1	0	138	1	1.05	0.95;
	10576	1	11.65	6.12	0	0	1	1	0	138	1	1.05	0.95;
	10577	1	52.83	24.77	0	0	1	1	0	138	1	1.05	0.95;
	10578	1	26.53	6.24	0	0	1	1	0	138	1	1.05	0.95;
	10579	1	0	0	0	0	1	1	0	138	1	1.05	0.95;
	10580	1	13	4.2	0	0	1	1	0	138	1	1.05	0.95;
	10581	1	22.08	6.27	0	0	1	1	0	138	1	1.05	0.95;
	10582	1	13.67	3.32	0	0	1	1	0	138	1	1.05	0.95;
	10583	1	0	0	0	0	1	1	0	138	1	1.05	0.95;
	10584	1	31.93	1.64	0	0	1	1	0	138	1	1.05	0.95;
	10585	1	47.67	13.12	0	0	1	1	0	138	1	1.05	0.95;
	10586	1	0	0	0	0	1	1	0	345	1	1.05	0.95;
	10587	1	0	0	0	0	1	1	0	138	1	1.05	0.95;
	10588	1	48.43	13.27	0	0	1	1	0	345	1	1.05	0.95;
	10589	1	51.22	19.76	0	0	1	1	0	138	1	1.05	0.95;
	10590	1	32.37	19.93	0	0	1	1	0	138	1	1.05	0.95;
	10591	1	0	0	0	0	1	1	0	138	1	1.05	0.95;
	10592	1	33.21	7.47	0	0	1	1	0	138	1	1.05	0.95;
	10593	1	0	0	0	0	1	1	0	138	1	1.05	0.95;
	10594	1	27.73	18.76	0	0	1	1	0	138	1	1.05	0.95;
	10595	1	2.59	0.54	0	0	1	1	0	138	1	1.05	0.95;
	10596	1	22.07	6.25	0	0	1	1	0	138	1	1.05	0.95;
	10597	1	15.44	2.02	0	0	1	1	0	138	1	1.05	0.95;
	10598	1	11.72	2.14	0	-28	1	1	0	138	1	1.05	0.95;
	10599	1	7.3	0.96	0	0	1	1	0	138	1	1.05	0.95;
	10600	1	40.36	10.11	0	0	1	1	0	138	1	1.05	0.95;
	10601	1	58.5	8.78	0	0	1	1	0	138	1	1.05	0.95;
	10602	1	58.5	37.89	0	0	1	1	0	138	1	1.05	0.95;
	10603	1	0	0	0	0	1	1	0	138	1	1.05	0.95;
	10604	1	36.33	6.25	0	0	1	1	0	138	1	1.05	0.95;
	10605	1	35.81	17.12	0	0	1	1	0	138	1	1.05	0.95;
	10606	1	9.8	4.39	0	0	1	1	0	138	1	1.05	0.95;
	10607	1	81.83	24.66	0	0	1	1	0	138	1	1.05	0.95;
	10608	1	0	0	0	0	1	1	0	138	1	1.05	0.95;
	10609	1	84.01	4.53	0	0	1	1	0	138	1	1.05	0.95;
	10610	1	19.08	2.67	0	0	1	1	0	138	1	1.05	0.95;
	10611	1	0	0	0	0	1	1	0	138	1	1.05	0.95;
	10612	1	0	0	0	0	1	1	0	138	1	1.05	0.95;
	10613	1	8.84	3.58	0	0	1	1	0	138	1	1.05	0.95;
	10614	1	14.83	2.9	0	0	1	1	0	138	1	1.05	0.95;
	10615	1	0	0	0	0	1	1	0	138	1	1.05	0.95;
	10616	1	10.54	1.88	0	0	1	1	0	138	1	1.05	0.95;
	10617	1	25.71	3.31	0	0	1	1	0	138	1	1.05	0.95;
	10618	1	11.54	4.75	0	0	1	1	0	138	1	1.05	0.95;
	10619	1	0	0	0	0	1	1	0	138	1	1.05	0.95;
	10620	1	18.18	2.13	0	0	1	1	0	138	1	1.05	0.95;
	10621	1	0	0	0	0	1	1	0	138	1	1.05	0.95;
	10622	1	16.75	2.97	0	0	1	1	0	138	1	1.05	0.95;
	10623	1	0	0	0	0	1	1	0	138	1	1.05	0.95;
	10624	1	0	0	0	0	1	1	0	138	1	1.05	0.95;
	10625	1	13.52	3.74	0	0	1	1	0	138	1	1.05	0.95;
	10626	1	12.06	0.86	0	0	1	1	0	138	1	1.05	0.95;
	10627	1	33.56	6.47	0	0	1	1	0	138	1	1.05	0.95;
	10628	1	44.13	15.71	0	0	1	1	0	138	1	1.05	0.95;
	10629	1	21.97	4.36	0	0	1	1	0	138	1	1.05	0.95;
	10630	1	44.49	7.77	0	0	1	1	0	138	1	1.05	0.95;
	10631	1	4.79	0.93	0	0	1	1	0	138	1	1.05	0.95;
	10632	1	21.7	1.5	0	0	1	1	0	138	1	1.05	0.95;
	10633	1	43.89	21.89	0	0	1	1	0	138	1	1.05	0.95;
	10634	1	37.73	8.18	0	0	1	1	0	138	1	1.05	0.95;
	10635	1	59.03	26.42	0	0	1	1	0	138	1	1.05	0.95;
	10636	1	0	0	0	0	1	1	0	138	1	1.05	0.95;
	10637	1	59.03	31.67	0	0	1	1	0	138	1	1.05	0.95;
	10638	1	50.56	26.31	0	0	1	1	0	138	1	1.05	0.95;
	10639	1	50.56	11.39	0	0	1	1	0	138	1	1.05	0.95;
	10640	1	0	0	0	0	1	1	0	138	1	1.05	0.95;
	10641	1	32.02	9.92	0	0	1	1	0	138	1	1.05	0.95;
	10642	1	0	0	0	0	1	1	0	138	1	1.05	0.95;
	10643	1	16.23	4.99	0	0	1	1	0	138	1	1.05	0.95;
	10644	1	0	0	0	0	1	1	0	138	1	1.05	0.95;
	10645	1	0	0	0	0	1	1	0	138	1	1.05	0.95;
	10646	1	12.43	6.02	0	0	1	1	0	138	1	1.05	0.95;
	10647	1	37.27	5.15	0	0	1	1	0	138	1	1.05	0.95;
	10648	1	48.46	9.72	0	0	1	1	0	138	1	1.05	0.95;
	10649	1	37.02	10.63	0	0	1	1	0	138	1	1.05	0.95;
	10650	1	37.02	18.96	0	0	1	1	0	138	1	1.05	0.95;
	10651	1	51.79	4.1	0	0	1	1	0	138	1	1.05	0.95;
	10652	1	20.58	0.77	0	0	1	1	0	138	1	1.05	0.95;