function mpc = case_ACTIVSg25k_OPF2
%CASE_ACTIVSG25K_OPF2

%% MATPOWER Case Format : Version 2
mpc.version = '2';

%%-----  Power Flow Data  -----%%
%% system MVA base
mpc.baseMVA = 100;

%% bus data
%	bus_i	type	Pd	Qd	Gs	Bs	area	Vm	Va	baseKV	zone	Vmax	Vmin
mpc.bus = [
	11001	1	0	0	0	0	11	1	0	138	1	1.05	0.95;
	11002	1	0	0	0	0	11	1	0	69	1	1.05	0.95;
	11003	1	0	0	0	0	11	1	0	18	1	1.05	0.95;
	11004	1	0	0	0	0	11	1	0	1	1	1.05	0.95;
	11005	1	53.22	12.56	0	0	11	1	0	138	1	1.05	0.95;
	11006	1	0	0	0	0	11	1	0	138	1	1.05	0.95;
	11007	1	0	0	0	0	11	1	0	69	1	1.05	0.95;
	11008	1	5.89	1.47	0	0	11	1	0	69	1	1.05	0.95;
	11009	1	12.29	2.77	0	0	11	1	0	69	1	1.05	0.95;
	11010	1	0	0	0	0	11	1	0	69	1	1.05	0.95;
	11011	1	0	0	0	24	11	1	0	69	1	1.05	0.95;
	11012	1	41.52	5.16	0	0	11	1	0	69	1	1.05	0.95;
	11013	1	0	0	0	0	11	1	0	69	1	1.05	0.95;
	11014	1	0	0	0	0	11	1	0	69	1	1.05	0.95;
	11015	1	0	0	0	0	11	1	0	69	1	1.05	0.95;
	11016	1	0	0	0	0	11	1	0	138	1	1.05	0.95;
	11017	1	0	0	0	0	11	1	0	69	1	1.05	0.95;
	11018	1	40.61	10.89	0	0	11	1	0	138	1	1.05	0.95;
	11019	1	0	0	0	0	11	1	0	138	1	1.05	0.95;
	11020	1	43.08	31.77	0	0	11	1	0	138	1	1.05	0.95;
	11021	1	0	0	0	26	11	1	0	69	1	1.05	0.95;
	11022	1	32.58	13.35	0	0	11	1	0	69	1	1.05	0.95;
	11023	1	32.58	11.05	0	0	11	1	0	69	1	1.05	0.95;
	11024	1	0	0	0	0	11	1	0	69	1	1.05	0.95;
	11025	1	0	0	0	0	11	1	0	69	1	1.05	0.95;
	11026	1	42.62	6.8	0	0	11	1	0	69	1	1.05	0.95;
	11027	1	0	0	0	0	11	1	0	138	1	1.05	0.95;
	11028	1	0	0	0	0	11	1	0	69	1	1.05	0.95;
	11029	1	50.01	8.36	0	0	11	1	0	138	1	1.05	0.95;
	11030	1	0	0	0	0	11	1	0	345	1	1.05	0.95;
	11031	1	58.73	8.55	0	0	11	1	0	138	1	1.05	0.95;
	11032	1	0	0	0	0	11	1	0	24	1	1.05	0.95;
	11033	1	0	0	0	0	11	1	0	1	1	1.05	0.95;
	11034	1	0	0	0	0	11	1	0	345	1	1.05	0.95;
	11035	1	0	0	0	0	11	1	0	345	1	1.05	0.95;
	11036	1	22.83	4.5	0	40	11	1	0	69	1	1.05	0.95;
	11037	1	0	0	0	40	11	1	0	69	1	1.05	0.95;
	11038	1	37.56	16.05	0	0	11	1	0	69	1	1.05	0.95;
	11039	1	48.46	5.17	0	0	11	1	0	138	1	1.05	0.95;
	11040	1	23.05	5.37	0	0	11	1	0	69	1	1.05	0.95;
	11041	1	0	0	0	0	11	1	0	69	1	1.05	0.95;
	11042	1	29.46	2.65	0	0	11	1	0	69	1	1.05	0.95;
	11043	1	0.37	0.08	0	0	11	1	0	69	1	1.05	0.95;
	11044	1	0	0	0	0	11	1	0	69	1	1.05	0.95;
	11045	1	14.7	3.14	0	0	11	1	0	69	1	1.05	0.95;
	11046	1	0	0	0	0	11	1	0	69	1	1.05	0.95;
	11047	1	0	0	0	0	11	1	0	138	1	1.05	0.95;
	11048	1	58.78	13.1	0	0	11	1	0	69	1	1.05	0.95;
	11049	1	0	0	0	0	11	1	0	138	1	1.05	0.95;
	11050	1	0	0	0	0	11	1	0	69	1	1.05	0.95;
	11051	1	50.26	13.62	0	0	11	1	0	69	1	1.05	0.95;
	11052	1	39.39	5.71	0	0	11	1	0	138	1	1.05	0.95;
	11053	1	0	0	0	0	11	1	0	138	1	1.05	0.95;
	11054	1	0	0	0	0	11	1	0	69	1	1.05	0.95;
	11055	1	39.17	19.43	0	0	11	1	0	138	1	1.05	0.95;
	11056	1	10.85	1.44	0	0	11	1	0	69	1	1.05	0.95;
	11057	1	0	0	0	21	11	1	0	69	1	1.05	0.95;
	11058	1	20.99	2.31	0	0	11	1	0	69	1	1.05	0.95;
	11059	1	0	0	0	0	11	1	0	69	1	1.05	0.95;
	11060	1	0	0	0	0	11	1	0	69	1	1.05	0.95;
	11061	1	0	0	0	0	11	1	0	345	1	1.05	0.95;
	11062	1	0	0	0	0	11	1	0	138	1	1.05	0.95;
	11063	1	0	0	0	0	11	1	0	69	1	1.05	0.95;
	11064	1	54.54	14.88	0	0	11	1	0	345	1	1.05	0.95;
	11065	1	0	0	0	0	11	1	0	138	1	1.05	0.95;
	11066	1	0	0	0	0	11	1	0	69	1	1.05	0.95;
	11067	1	26.38	11.13	0	0	11	1	0	69	1	1.05	0.95;
	11068	1	33.91	10.1	0	0	11	1	0	69	1	1.05	0.95;
	11069	1	0	0	0	0	11	1	0	69	1	1.05	0.95;
	11070	1	0	0	0	0	11	1	0	69	1	1.05	0.95;
	11071	1	11.72	3.73	0	0	11	1	0	69	1	1.05	0.95;
	11072	1	17.96	1.61	0	0	11	1	0	69	1	1.05	0.95;
	11073	1	0	0	0	0	11	1	0	69	1	1.05	0.95;
	11074	1	0	0	0	0	11	1	0	138	1	1.05	0.95;
	11075	1	56.63	20.34	0	0	11	1	0	138	1	1.05	0.95;
	11076	1	0	0	0	0	11	1	0	69	1	1.05	0.95;
	11077	1	18.77	2.83	0	0	11	1	0	69	1	1.05	0.95;
	11078	1	0	0	0	0	11	1	0	138	1	1.05	0.95;
	11079	1	0	0	0	0	11	1	0	69	1	1.05	0.95;
	11080	1	46.81	12.6	0	0	11	1	0	138	1	1.05	0.95;
	11081	1	0	0	0	0	11	1	0	138	1	1.05	0.95;
	11082	1	0	0	0	0	11	1	0	69	1	1.05	0.95;
	11083	1	27.43	4.42	0	0	11	1	0	69	1	1.05	0.95;
	11084	1	44.74	17.52	0	0	11	1	0	69	1	1.05	0.95;
	11085	1	0	0	0	0	11	1	0	138	1	1.05	0.95;
	11086	1	44.74	17.31	0	0	11	1	0	69	1	1.05	0.95;
	11087	1	0	0	0	0	11	1	0	13.8	1	1.05	0.95;
	11088	1	0	0	0	0	11	1	0	1	1	1.05	0.95;
	11089	1	0	0	0	0	11	1	0	138	1	1.05	0.95;
	11090	1	44.83	11.68	0	0	11	1	0	69	1	1.05	0.95;
	11091	1	0	0	0	422	11	1	0	345	1	1.05	0.95;
	11092	1	0	0	0	0	11	1	0	138	1	1.05	0.95;
	11093	1	0	0	0	0	11	1	0	69	1	1.05	0.95;
	11094	1	51.91	27.85	0	0	11	1	0	138	1	1.05	0.95;
	11095	1	36.04	7.74	0	0	11	1	0	69	1	1.05	0.95;
	11096	1	36.04	2.7	0	0	11	1	0	69	1	1.05	0.95;
	11097	1	37.44	21.43	0	0	11	1	0	69	1	1.05	0.95;
	11098	1	0	0	0	0	11	1	0	69	1	1.05	0.95;
	11099	1	37.44	14.45	0	0	11	1	0	69	1	1.05	0.95;
	11100	1	45.7	13.49	0	0	11	1	0	69	1	1.05	0.95;
	11101	1	0	0	0	0	11	1	0	138	1	1.05	0.95;
	11102	1	45.7	10.14	0	0	11	1	0	138	1	1.05	0.95;
	11103	1	0	0	0	0	11	1	0	138	1	1.05	0.95;
	11104	1	0	0	0	0	11	1	0	69	1	1.05	0.95;
	11105	1	33.39	7.73	0	0	11	1	0	138	1	1.05	0.95;
	11106	1	0	0	0	0	11	1	0	138	1	1.05	0.95;
	11107	1	6.07	1.26	0	0	11	1	0	138	1	1.05	0.95;
	11108	1	33.39	11.4	0	0	11	1	0	69	1	1.05	0.95;
	11109	1	33.63	5.14	0	0	11	1	0	138	1	1.05	0.95;
	11110	1	0	0	0	0	11	1	0	138	1	1.05	0.95;
	11111	1	50.83	18.1	0	0	11	1	0	69	1	1.05	0.95;
	11112	1	0	0	0	0	11	1	0	138	1	1.05	0.95;
	11113	1	0	0	0	0	11	1	0	138	1	1.05	0.95;
	11114	1	0	0	0	0	11	1	0	69	1	1.05	0.95;
	11115	1	50.83	4.52	0	0	11	1	0	138	1	1.05	0.95;
	11116	1	0	0	0	0	11	1	0	138	1	1.05	0.95;
	11117	1	37.99	16.3	0	0	11	1	0	138	1	1.05	0.95;
	11118	1	0	0	0	0	11	1	0	138	1	1.05	0.95;
	11119	1	45.91	30.33	0	0	11	1	0	138	1	1.05	0.95;
	11120	1	35.8	10.43	0	0	11	1	0	69	1	1.05	0.95;
	11121	1	0	0	0	0	11	1	0	69	1	1.05	0.95;
	11122	1	32.15	4.57	0	0	11	1	0	69	1	1.05	0.95;
	11123	1	0	0	0	0	11	1	0	69	1	1.05	0.95;
	11124	1	0	0	0	0	11	1	0	69	1	1.05	0.95;
	11125	1	47.75	8.66	0	0	11	1	0	69	1	1.05	0.95;
	11126	1	0	0	0	0	11	1	0	69	1	1.05	0.95;
	11127	1	7.83	2.04	0	0	11	1	0	69	1	1.05	0.95;
	11128	1	37.21	13.72	0	0	11	1	0	69	1	1.05	0.95;
	11129	1	34.63	12.39	0	0	11	1	0	138	1	1.05	0.95;
	11130	1	0	0	0	0	11	1	0	69	1	1.05	0.95;
	11131	1	14.53	3.05	0	0	11	1	0	69	1	1.05	0.95;
	11132	1	0	0	0	0	11	1	0	69	1	1.05	0.95;
	11133	1	7.65	2.25	0	0	11	1	0	69	1	1.05	0.95;
	11134	1	39.75	5.63	0	0	11	1	0	69	1	1.05	0.95;
	11135	1	0	0	0	0	11	1	0	69	1	1.05	0.95;
	11136	1	0	0	0	0	11	1	0	138	1	1.05	0.95;
	11137	1	0	0	0	0	11	1	0	69	1	1.05	0.95;
	11138	1	0	0	0	0	11	1	0	18	1	1.05	0.95;
	11139	1	0	0	0	0	11	1	0	1	1	1.05	0.95;
	11140	1	39.75	4.83	0	0	11	1	0	138	1	1.05	0.95;
	11141	1	38.43	17.87	0	0	11	1	0	69	1	1.05	0.95;
	11142	1	0	0	0	0	11	1	0	138	1	1.05	0.95;
	11143	1	0	0	0	0	11	1	0	69	1	1.05	0.95;
	11144	1	0	0	0	0	11	1	0	13.2	1	1.05	0.95;
	11145	1	0	0	0	0	11	1	0	1	1	1.05	0.95;
	11146	1	0	0	0	0	11	1	0	138	1	1.05	0.95;
	11147	1	38.43	9.55	0	0	11	1	0	138	1	1.05	0.95;
	11148	1	7.17	1.14	0	0	11	1	0	69	1	1.05	0.95;
	11149	1	48.3	7.99	0	0	11	1	0	138	1	1.05	0.95;
	11150	1	25.95	6.14	0	0	11	1	0	69	1	1.05	0.95;
	11151	1	0	0	0	0	11	1	0	138	1	1.05	0.95;
	11152	1	3.23	1.05	0	0	11	1	0	69	1	1.05	0.95;
	11153	1	36.61	5.93	0	0	11	1	0	138	1	1.05	0.95;
	11154	1	0	0	0	0	11	1	0	69	1	1.05	0.95;
	11155	1	36.61	0.87	0	0	11	1	0	69	1	1.05	0.95;
	11156	1	0	0	0	0	11	1	0	69	1	1.05	0.95;
	11157	1	0	0	0	0	11	1	0	69	1	1.05	0.95;
	11158	1	0	0	0	0	11	1	0	345	1	1.05	0.95;
	11159	1	0	0	0	0	11	1	0	138	1	1.05	0.95;
	11160	1	0	0	0	0	11	1	0	69	1	1.05	0.95;
	11161	1	44.36	11.49	0	0	11	1	0	138	1	1.05	0.95;
	11162	1	0	0	0	0	11	1	0	138	1	1.05	0.95;
	11163	1	6.33	0.74	0	0	11	1	0	69	1	1.05	0.95;
	11164	1	34.11	5.36	0	0	11	1	0	138	1	1.05	0.95;
	11165	1	0	0	0	0	11	1	0	69	1	1.05	0.95;
	11166	1	42.42	16.76	0	0	11	1	0	69	1	1.05	0.95;
	11167	1	0	0	0	0	11	1	0	69	1	1.05	0.95;
	11168	1	0	0	0	0	11	1	0	138	1	1.05	0.95;
	11169	1	0	0	0	0	11	1	0	69	1	1.05	0.95;
	11170	1	0	0	0	0	11	1	0	20	1	1.05	0.95;
	11171	1	0	0	0	0	11	1	0	1	1	1.05	0.95;
	11172	1	42.42	13.93	0	0	11	1	0	138	1	1.05	0.95;
	11173	1	55.7	38.61	0	0	11	1	0	138	1	1.05	0.95;
	11174	1	0	0	0	0	11	1	0	345	1	1.05	0.95;
	11175	1	0	0	0	0	11	1	0	138	1	1.05	0.95;
	11176	1	0	0	0	0	11	1	0	69	1	1.05	0.95;
	11177	1	55.7	1.72	0	0	11	1	0	345	1	1.05	0.95;
	11178	1	0	0	0	0	11	1	0	345	1	1.05	0.95;
	11179	1	12.51	3.13	0	0	11	1	0	69	1	1.05	0.95;
	11180	1	30.37	4.37	0	0	11	1	0	138	1	1.05	0.95;
	11181	1	0	0	0	0	11	1	0	138	1	1.05	0.95;
	11182	1	0	0	0	0	11	1	0	138	1	1.05	0.95;
	11183	1	20.58	10.68	0	0	11	1	0	69	1	1.05	0.95;
	11184	1	0	0	0	0	11	1	0	69	1	1.05	0.95;
	11185	1	0	0	0	0	11	1	0	69	1	1.05	0.95;
	11186	1	40	8.86	0	0	11	1	0	69	1	1.05	0.95;
	11187	1	0	0	0	0	11	1	0	69	1	1.05	0.95;
	11188	1	18.7	9.54	0	0	11	1	0	69	1	1.05	0.95;
	11189	1	39.23	9.15	0	0	11	1	0	69	1	1.05	0.95;
	11190	1	0	0	0	0	11	1	0	69	1	1.05	0.95;
	11191	1	0	0	0	0	11	1	0	138	1	1.05	0.95;
	11192	1	21.45	4.71	0	0	11	1	0	138	1	1.05	0.95;
	11193	1	0	0	0	0	11	1	0	69	1	1.05	0.95;
	11194	1	32.21	11.63	0	0	11	1	0	69	1	1.05	0.95;
	11195	1	0	0	0	0	11	1	0	69	1	1.05	0.95;
	11196	1	22.55	5.68	0	0	11	1	0	69	1	1.05	0.95;
	11197	1	0	0	0	0	11	1	0	69	1	1.05	0.95;
	11198	1	0	0	0	0	11	1	0	138	1	1.05	0.95;
	11199	1	0	0	0	0	11	1	0	69	1	1.05	0.95;
	11200	1	0	0	0	0	11	1	0	18	1	1.05	0.95;
	11201	1	0	0	0	0	11	1	0	1	1	1.05	0.95;
	11202	1	46.88	9.41	0	0	11	1	0	138	1	1.05	0.95;
	11203	1	0	0	0	0	11	1	0	138	1	1.05	0.95;
	11204	1	30.86	7.97	0	0	11	1	0	138	1	1.05	0.95;
	11205	1	0	0	0	0	11	1	0	69	1	1.05	0.95;
	11206	1	32.95	5.37	0	0	11	1	0	69	1	1.05	0.95;
	11207	1	0	0	0	0	11	1	0	69	1	1.05	0.95;
	11208	1	32.95	5.23	0	0	11	1	0	69	1	1.05	0.95;
	11209	1	20.89	3.29	0	0	11	1	0	69	1	1.05	0.95;
	11210	1	56.36	11.18	0	0	11	1	0	138	1	1.05	0.95;
	11211	1	0	0	0	0	11	1	0	69	1	1.05	0.95;
	11212	1	35.47	13.97	0	0	11	1	0	69	1	1.05	0.95;
	11213	1	0	0	0	0	11	1	0	69	1	1.05	0.95;
	11214	1	0	0	0	0	11	1	0	69	1	1.05	0.95;
	11215	1	35.47	19.19	0	0	11	1	0	69	1	1.05	0.95;
	11216	1	0	0	0	0	11	1	0	138	1	1.05	0.95;
	11217	1	63.05	14.41	0	0	11	1	0	138	1	1.05	0.95;
	11218	1	0	0	0	0	11	1	0	138	1	1.05	0.95;
	11219	1	0	0	0	0	11	1	0	138	1	1.05	0.95;
	11220	1	61.07	14.22	0	0	11	1	0	138	1	1.05	0.95;
	11221	1	9.93	2.47	0	0	11	1	0	69	1	1.05	0.95;
	11222	1	0	0	0	0	11	1	0	69	1	1.05	0.95;
	11223	1	12.64	1.45	0	0	11	1	0	69	1	1.05	0.95;
	11224	1	0	0	0	0	11	1	0	69	1	1.05	0.95;
	11225	1	51.43	45.14	0	0	11	1	0	69	1	1.05	0.95;
	11226	1	51.43	8.39	0	0	11	1	0	69	1	1.05	0.95;
	11227	1	0	0	0	0	11	1	0	138	1	1.05	0.95;
	11228	1	0	0	0	0	11	1	0	69	1	1.05	0.95;
	11229	1	0	0	0	0	11	1	0	13.8	1	1.05	0.95;
	11230	1	0	0	0	0	11	1	0	1	1	1.05	0.95;
	11231	1	54.38	10.83	0	0	11	1	0	138	1	1.05	0.95;
	11232	1	0	0	0	0	11	1	0	138	1	1.05	0.95;
	11233	1	30.33	10.65	0	32.5	11	1	0	69	1	1.05	0.95;
	11234	1	12.63	3.12	0	0	11	1	0	69	1	1.05	0.95;
	11235	1	0	0	0	0	11	1	0	138	1	1.05	0.95;
	11236	1	36.96	3.34	0	0	11	1	0	69	1	1.05	0.95;
	11237	1	0	0	0	0	11	1	0	138	1	1.05	0.95;
	11238	1	10.72	0.5	0	0	11	1	0	69	1	1.05	0.95;
	11239	1	31.74	5.31	0	0	11	1	0	69	1	1.05	0.95;
	11240	1	0	0	0	0	11	1	0	69	1	1.05	0.95;
	11241	1	0	0	0	0	11	1	0	69	1	1.05	0.95;
	11242	1	0	0	0	0	11	1	0	69	1	1.05	0.95;
	11243	1	26.15	6.52	0	0	11	1	0	69	1	1.05	0.95;
	11244	1	0	0	0	0	11	1	0	69	1	1.05	0.95;
	11245	1	9.67	2.98	0	0	11	1	0	69	1	1.05	0.95;
	11246	1	0	0	0	0	11	1	0	138	1	1.05	0.95;
	11247	1	58	6.14	0	0	11	1	0	138	1	1.05	0.95;
	11248	1	0	0	0	0	11	1	0	138	1	1.05	0.95;
	11249	1	4.55	1.08	0	0	11	1	0	69	1	1.05	0.95;
	11250	1	46.13	14.17	0	0	11	1	0	138	1	1.05	0.95;
	11251	1	0	0	0	0	11	1	0	69	1	1.05	0.95;
	11252	1	32.55	10.56	0	0	11	1	0	69	1	1.05	0.95;
	11253	1	0	0	0	0	11	1	0	138	1	1.05	0.95;
	11254	1	0	0	0	0	11	1	0	69	1	1.05	0.95;
	11255	1	32.55	1.93	0	0	11	1	0	138	1	1.05	0.95;
	11256	1	0	0	0	0	11	1	0	138	1	1.05	0.95;
	11257	1	0	0	0	0	11	1	0	69	1	1.05	0.95;
	11258	1	38.28	17.73	0	0	11	1	0	138	1	1.05	0.95;
	11259	1	0	0	0	0	11	1	0	138	1	1.05	0.95;
	11260	1	0	0	0	0	11	1	0	138	1	1.05	0.95;
	11261	1	0	0	0	0	11	1	0	69	1	1.05	0.95;
	11262	1	38.28	8.47	0	0	11	1	0	138	1	1.05	0.95;
	11263	1	19.54	2.89	0	0	11	1	0	69	1	1.05	0.95;
	11264	1	0	0	0	0	11	1	0	69	1	1.05	0.95;
	11265	1	0	0	0	0	11	1	0	138	1	1.05	0.95;
	11266	1	64.54	25.08	0	0	11	1	0	138	1	1.05	0.95;
	11267	1	0	0	0	0	11	1	0	138	1	1.05	0.95;
	11268	1	0	0	0	0	11	1	0	69	1	1.05	0.95;
	11269	1	59.85	19	0	0	11	1	0	138	1	1.05	0.95;
	11270	1	0	0	0	0	11	1	0	138	1	1.05	0.95;
	11271	1	68.19	17.2	0	0	11	1	0	138	1	1.05	0.95;
	11272	1	0	0	0	0	11	1	0	345	1	1.05	0.95;
	11273	1	0	0	0	0	11	1	0	138	1	1.05	0.95;
	11274	1	0	0	0	0	11	1	0	13.8	1	1.05	0.95;
	11275	1	0	0	0	0	11	1	0	1	1	1.05	0.95;
	11276	1	68.07	12.87	0	0	11	1	0	345	1	1.05	0.95;
	11277	1	0	0	0	0	11	1	0	345	1	1.05	0.95;
	11278	1	0	0	0	0	11	1	0	345	1	1.05	0.95;
	11279	1	0	0	0	0	11	1	0	138	1	1.05	0.95;
	11280	1	0	0	0	0	11	1	0	69	1	1.05	0.95;
	11281	1	69.92	43.25	0	0	11	1	0	138	1	1.05	0.95;
	11282	1	0	0	0	0	11	1	0	138	1	1.05	0.95;
	11283	1	0	0	0	0	11	1	0	138	1	1.05	0.95;
	11284	1	69.92	29.12	0	0	11	1	0	138	1	1.05	0.95;
	11285	1	37.59	8.13	0	0	11	1	0	69	1	1.05	0.95;
	11286	1	0	0	0	0	11	1	0	138	1	1.05	0.95;
	11287	1	0	0	0	0	11	1	0	69	1	1.05	0.95;
	11288	1	42.14	8.58	0	0	11	1	0	138	1	1.05	0.95;
	11289	1	0	0	0	0	11	1	0	138	1	1.05	0.95;
	11290	1	0	0	0	0	11	1	0	69	1	1.05	0.95;
	11291	1	23.9	3.89	0	0	11	1	0	69	1	1.05	0.95;
	11292	1	0	0	0	0	11	1	0	69	1	1.05	0.95;
	11293	1	0	0	0	0	11	1	0	69	1	1.05	0.95;
	11294	2	0	0	0	0	11	1	0	13.8	1	1.05	0.95;
	11295	1	0	0	0	0	11	1	0	69	1	1.05	0.95;
	11296	1	0	0	0	0	11	1	0	69	1	1.05	0.95;
	11297	2	0	0	0	0	11	1	0	69	1	1.05	0.95;
	11298	1	0	0	0	0	11	1	0	69	1	1.05	0.95;
	11299	2	0	0	0	0	11	1	0	69	1	1.05	0.95;
	11300	1	0	0	0	0	11	1	0	69	1	1.05	0.95;
	11301	1	0	0	0	0	11	1	0	69	1	1.05	0.95;
	11302	2	0	0	0	0	11	1	0	13.8	1	1.05	0.95;
	11303	2	0	0	0	0	11	1	0	13.8	1	1.05	0.95;
	11304	2	0	0	0	0	11	1	0	13.8	1	1.05	0.95;
	11305	1	0	0	0	0	11	1	0	69	1	1.05	0.95;
	11306	1	0	0	0	0	11	1	0	69	1	1.05	0.95;
	11307	1	0	0	0	0	11	1	0	69	1	1.05	0.95;
	11308	1	0	0	0	0	11	1	0	69	1	1.05	0.95;
	11309	2	0	0	0	0	11	1	0	18	1	1.05	0.95;
	11310	2	0	0	0	0	11	1	0	22	1	1.05	0.95;
	11311	2	0	0	0	0	11	1	0	18	1	1.05	0.95;
	11312	1	0	0	0	0	11	1	0	69	1	1.05	0.95;
	11313	1	0	0	0	0	11	1	0	138	1	1.05	0.95;
	11314	1	0	0	0	0	11	1	0	69	1	1.05	0.95;
	11315	2	0	0	0	0	11	1	0	18	1	1.05	0.95;
	11316	2	0	0	0	0	11	1	0	13.8	1	1.05	0.95;
	11317	1	0	0	0	0	11	1	0	138	1	1.05	0.95;
	11318	1	0	0	0	0	11	1	0	138	1	1.05	0.95;
	11319	1	0	0	0	0	11	1	0	69	1	1.05	0.95;
	11320	2	0	0	0	0	11	1	0	13.8	1	1.05	0.95;
	11321	2	0	0	0	0	11	1	0	13.8	1	1.05	0.95;
	11322	2	0	0	0	0	11	1	0	18	1	1.05	0.95;
	11323	1	0	0	0	0	11	1	0	69	1	1.05	0.95;
	11324	1	0	0	0	0	11	1	0	69	1	1.05	0.95;
	11325	2	0	0	0	0	11	1	0	13.8	1	1.05	0.95;
	11326	2	0	0	0	0	11	1	0	13.8	1	1.05	0.95;
	11327	1	0	0	0	0	11	1	0	1	1	1.05	0.95;
	11328	1	0	0	0	0	11	1	0	69	1	1.05	0.95;
	11329	1	0	0	0	0	11	1	0	69	1	1.05	0.95;
	11330	2	0	0	0	0	11	1	0	13.2	1	1.05	0.95;
	11331	1	0	0	0	0	11	1	0	69	1	1.05	0.95;
	11332	2	0	0	0	0	11	1	0	69	1	1.05	0.95;
	11333	2	2.78	0.99	0	0	11	1	0	69	1	1.05	0.95;
	11334	2	0	0	0	0	11	1	0	69	1	1.05	0.95;
	11335	1	0	0	0	0	11	1	0	69	1	1.05	0.95;
	11336	2	0	0	0	0	11	1	0	24	1	1.05	0.95;
	11337	1	0	0	0	0	11	1	0	69	1	1.05	0.95;
	11338	1	0	0	0	0	11	1	0	69	1	1.05	0.95;
	11339	2	0	0	0	0	11	1	0	13.8	1	1.05	0.95;
	11340	2	0	0	0	0	11	1	0	13.8	1	1.05	0.95;
	11341	2	0	0	0	0	11	1	0	18	1	1.05	0.95;
	11342	1	0	0	0	0	11	1	0	69	1	1.05	0.95;
	11343	1	0	0	0	0	11	1	0	69	1	1.05	0.95;
	11344	1	0	0	0	0	11	1	0	69	1	1.05	0.95;
	11345	1	0	0	0	0	11	1	0	13.8	1	1.05	0.95;
	11346	1	0	0	0	0	11	1	0	13.8	1	1.05	0.95;
	11347	1	0	0	0	0	11	1	0	1	1	1.05	0.95;
	11348	2	0	0	0	0	11	1	0	13.8	1	1.05	0.95;
	11349	1	0	0	0	0	11	1	0	69	1	1.05	0.95;
	11350	1	0	0	0	0	11	1	0	69	1	1.05	0.95;
	11351	1	0	0	0	0	11	1	0	69	1	1.05	0.95;
	11352	1	0	0	0	0	11	1	0	13.8	1	1.05	0.95;
	11353	1	0	0	0	0	11	1	0	13.8	1	1.05	0.95;
	11354	1	0	0	0	0	11	1	0	1	1	1.05	0.95;
	11355	2	0	0	0	0	11	1	0	13.8	1	1.05	0.95;
	11356	2	0	0	0	0	11	1	0	13.8	1	1.05	0.95;
	11357	2	0	0	0	0	11	1	0	13.8	1	1.05	0.95;
	11358	1	0	0	0	0	11	1	0	69	1	1.05	0.95;
	11359	1	0	0	0	0	11	1	0	69	1	1.05	0.95;
	11360	1	0	0	0	0	11	1	0	69	1	1.05	0.95;
	11361	1	0	0	0	0	11	1	0	69	1	1.05	0.95;
	11362	2	0	0	0	0	11	1	0	18	1	1.05	0.95;
	11363	2	0	0	0	0	11	1	0	18	1	1.05	0.95;
	11364	1	0	0	0	0	11	1	0	69	1	1.05	0.95;
	11365	2	0	0	0	0	11	1	0	69	1	1.05	0.95;
	11366	2	0	0	0	0	11	1	0	13.2	1	1.05	0.95;
	11367	2	0	0	0	0	11	1	0	13.2	1	1.05	0.95;
	11368	1	0	0	0	0	11	1	0	1	1	1.05	0.95;
	11369	1	0	0	0	0	11	1	0	69	1	1.05	0.95;
	11370	1	0	0	0	0	11	1	0	345	1	1.05	0.95;
	11371	1	0	0	0	0	11	1	0	138	1	1.05	0.95;
	11372	2	0	0	0	0	11	1	0	13.8	1	1.05	0.95;
	11373	2	0	0	0	0	11	1	0	22	1	1.05	0.95;
	11374	2	0	0	0	0	11	1	0	18	1	1.05	0.95;
	11375	2	0	0	0	0	11	1	0	13.8	1	1.05	0.95;
	11376	1	3.2	1.31	0	0	11	1	0	345	1	1.05	0.95;
	11377	1	0	0	0	0	11	1	0	345	1	1.05	0.95;
	11378	1	0	0	0	0	11	1	0	345	1	1.05	0.95;
	11379	1	0	0	0	0	11	1	0	138	1	1.05	0.95;
	11380	2	0	0	0	0	11	1	0	13.8	1	1.05	0.95;
	11381	2	0	0	0	0	11	1	0	24	1	1.05	0.95;
	11382	2	0	0	0	0	11	1	0	18	1	1.05	0.95;
	11383	1	0	0	0	0	11	1	0	345	1	1.05	0.95;
	11384	1	0	0	0	0	11	1	0	345	1	1.05	0.95;
	11385	1	0	0	0	0	11	1	0	345	1	1.05	0.95;
	11386	1	0	0	0	0	11	1	0	345	1	1.05	0.95;
	11387	1	0	0	0	0	11	1	0	138	1	1.05	0.95;
	11388	1	0	0	0	0	11	1	0	69	1	1.05	0.95;
	11389	2	0	0	0	0	11	1	0	13.8	1	1.05	0.95;
	11390	2	0	0	0	0	11	1	0	13.8	1	1.05	0.95;
	11391	2	0	0	0	0	11	1	0	13.8	1	1.05	0.95;
	11392	2	0	0	0	0	11	1	0	22	1	1.05	0.95;
	11393	2	0	0	0	0	11	1	0	13.8	1	1.05	0.95;
	11394	1	0	0	0	0	11	1	0	345	1	1.05	0.95;
	11395	1	0	0	0	0	11	1	0	138	1	1.05	0.95;
	11396	2	0	0	0	0	11	1	0	69	1	1.05	0.95;
	11397	2	0	0	0	0	11	1	0	69	1	1.05	0.95;
	11398	1	0	0	0	0	11	1	0	69	1	1.05	0.95;
	11399	1	0	0	0	0	11	1	0	69	1	1.05	0.95;
	11400	1	0	0	0	0	11	1	0	69	1	1.05	0.95;
	11401	2	0	0	0	0	11	1	0	18	1	1.05	0.95;
	11402	2	0	0	0	0	11	1	0	18	1	1.05	0.95;
	11403	1	0	0	0	0	11	1	0	1	1	1.05	0.95;
	11404	1	0	0	0	0	11	1	0	69	1	1.05	0.95;
	11405	1	0	0	0	0	11	1	0	69	1	1.05	0.95;
	11406	2	0	0	0	0	11	1	0	20	1	1.05	0.95;
	11407	2	0	0	0	0	11	1	0	13.8	1	1.05	0.95;
	11408	1	0	0	0	0	11	1	0	69	1	1.05	0.95;
	11409	1	0	0	0	0	11	1	0	69	1	1.05	0.95;
	11410	1	0	0	0	0	11	1	0	69	1	1.05	0.95;
	11411	1	0	0	0	0	11	1	0	69	1	1.05	0.95;
	11412	2	0	0	0	0	11	1	0	69	1	1.05	0.95;
	11413	1	0	0	0	0	11	1	0	69	1	1.05	0.95;
	11414	1	0	0	0	0	11	1	0	69	1	1.05	0.95;
	11415	2	0	0	0	0	11	1	0	18	1	1.05	0.95;
	11416	1	0	0	0	0	11	1	0	69	1	1.05	0.95;
	11417	2	0	0	0	0	11	1	0	69	1	1.05	0.95;
	11418	1	0	0	0	0	11	1	0	345	1	1.05	0.95;
	11419	1	0	0	0	0	11	1	0	138	1	1.05	0.95;
	11420	1	0	0	0	0	11	1	0	69	1	1.05	0.95;
	11421	2	0	0	0	0	11	1	0	22	1	1.05	0.95;
	11422	2	0	0	0	0	11	1	0	13.8	1	1.05	0.95;
	11423	2	0	0	0	0	11	1	0	13.8	1	1.05	0.95;
	11424	1	0	0	0	0	11	1	0	138	1	1.05	0.95;
	11425	1	0	0	0	0	11	1	0	138	1	1.05	0.95;
	11426	1	0	0	0	0	11	1	0	345	1	1.05	0.95;
	11427	1	0	0	0	0	11	1	0	345	1	1.05	0.95;
	11428	1	0	0	0	0	11	1	0	345	1	1.05	0.95;
	11429	1	0	0	0	0	11	1	0	138	1	1.05	0.95;
	11430	1	0	0	0	0	11	1	0	69	1	1.05	0.95;
	11431	1	0	0	0	0	11	1	0	18	1	1.05	0.95;
	11432	1	0	0	0	0	11	1	0	1	1	1.05	0.95;
	11433	2	0	0	0	0	11	1	0	18	1	1.05	0.95;
	11434	2	0	0	0	0	11	1	0	13.8	1	1.05	0.95;
	11435	1	0	0	0	0	11	1	0	138	1	1.05	0.95;
	11436	1	0	0	0	0	11	1	0	138	1	1.05	0.95;
	11437	1	0	0	0	0	11	1	0	345	1	1.05	0.95;
	11438	1	0	0	0	0	11	1	0	138	1	1.05	0.95;
	11439	1	0	0	0	0	11	1	0	69	1	1.05	0.95;
	11440	2	0	0	0	0	11	1	0	13.8	1	1.05	0.95;
	11441	2	0	0	0	0	11	1	0	24	1	1.05	0.95;
	11442	2	0	0	0	0	11	1	0	13.8	1	1.05	0.95;
	11443	2	0	0	0	0	11	1	0	20	1	1.05	0.95;
	11444	2	0	0	0	0	11	1	0	13.8	1	1.05	0.95;
	11445	2	0	0	0	0	11	1	0	13.8	1	1.05	0.95;
	11446	2	0	0	0	0	11	1	0	13.8	1	1.05	0.95;
	11447	2	0	0	0	0	11	1	0	13.8	1	1.05	0.95;
	11448	1	0	0	0	0	11	1	0	138	1	1.05	0.95;
	11449	1	0	0	0	0	11	1	0	345	1	1.05	0.95;
	11450	1	0	0	0	0	11	1	0	138	1	1.05	0.95;
	11451	1	0	0	0	0	11	1	0	69	1	1.05	0.95;
	11452	2	0	0	0	0	11	1	0	18	1	1.05	0.95;
	11453	2	0	0	0	0	11	1	0	13.8	1	1.05	0.95;
	11454	1	0	0	0	0	11	1	0	69	1	1.05	0.95;
	11455	1	0	0	0	0	11	1	0	69	1	1.05	0.95;
	11456	1	0	0	0	0	11	1	0	69	1	1.05	0.95;
	11457	2	0	0	0	0	11	1	0	13.8	1	1.05	0.95;
	11458	1	0	0	0	0	11	1	0	69	1	1.05	0.95;
	11459	2	0	0	0	0	11	1	0	138	1	1.05	0.95;
	11460	1	0	0	0	0	11	1	0	69	1	1.05	0.95;
	11461	1	0	0	0	0	11	1	0	13.2	1	1.05	0.95;
	11462	1	0	0	0	0	11	1	0	1	1	1.05	0.95;
	11463	1	0	0	0	0	11	1	0	138	1	1.05	0.95;
	11464	1	0	0	0	0	11	1	0	138	1	1.05	0.95;
	11465	1	0	0	0	0	11	1	0	345	1	1.05	0.95;
	11466	1	0	0	0	0	11	1	0	138	1	1.05	0.95;
	11467	2	0	0	0	0	11	1	0	13.8	1	1.05	0.95;
	11468	2	0	0	0	0	11	1	0	20	1	1.05	0.95;
	11469	2	0	0	0	0	11	1	0	13.8	1	1.05	0.95;
	11470	2	0	0	0	0	11	1	0	13.8	1	1.05	0.95;
	11471	1	0	0	0	0	11	1	0	69	1	1.05	0.95;
	11472	2	0	0	0	0	11	1	0	18	1	1.05	0.95;
	11473	2	0	0	0	0	11	1	0	13.8	1	1.05	0.95;
	11474	2	0	0	0	0	11	1	0	18	1	1.05	0.95;
	11475	1	0	0	0	0	11	1	0	69	1	1.05	0.95;
	11476	1	0	0	0	0	11	1	0	69	1	1.05	0.95;
	11477	1	0	0	0	0	11	1	0	69	1	1.05	0.95;
	11478	1	0	0	0	0	11	1	0	69	1	1.05	0.95;
	11479	2	0	0	0	0	11	1	0	13.8	1	1.05	0.95;
	11480	2	0	0	0	0	11	1	0	13.8	1	1.05	0.95;
	11481	2	0	0	0	0	11	1	0	18	1	1.05	0.95;
	11482	1	0	0	0	0	11	1	0	69	1	1.05	0.95;
	11483	1	0	0	0	0	11	1	0	69	1	1.05	0.95;
	11484	1	0	0	0	0	11	1	0	69	1	1.05	0.95;
	11485	2	0	0	0	0	11	1	0	69	1	1.05	0.95;
	11486	1	0	0	0	0	11	1	0	69	1	1.05	0.95;
	11487	2	0	0	0	0	11	1	0	69	1	1.05	0.95;
	11488	1	0	0	0	0	11	1	0	69	1	1.05	0.95;
	11489	1	0	0	0	0	11	1	0	345	1	1.05	0.95;
	11490	1	0	0	0	0	11	1	0	138	1	1.05	0.95;
	11491	2	0	0	0	0	11	1	0	13.8	1	1.05	0.95;
	11492	2	0	0	0	0	11	1	0	18	1	1.05	0.95;
	11493	2	0	0	0	0	11	1	0	18	1	1.05	0.95;
	11494	2	0	0	0	0	11	1	0	13.8	1	1.05	0.95;
	11495	2	0	0	0	0	11	1	0	18	1	1.05	0.95;
	11496	2	0	0	0	0	11	1	0	13.8	1	1.05	0.95;
	11497	1	0	0	0	0	11	1	0	345	1	1.05	0.95;
	11498	1	0	0	0	0	11	1	0	345	1	1.05	0.95;
	11499	2	0	0	0	0	11	1	0	69	1	1.05	0.95;
	13001	1	37.5	11.04	0	0	13	1	0	100	1	1.05	0.95;
	13002	1	0	0	0	0	13	1	0	230	1	1.05	0.95;
	13003	1	0	0	0	0	13	1	0	100	1	1.05	0.95;
	13004	1	72.49	7.79	0	0	13	1	0	230	1	1.05	0.95;
	13005	1	72.49	20.68	0	0	13	1	0	100	1	1.05	0.95;
	13006	1	0	0	0	0	13	1	0	230	1	1.05	0.95;
	13007	1	54.41	25.25	0	0	13	1	0	100	1	1.05	0.95;
	13008	1	0	0	0	0	13	1	0	230	1	1.05	0.95;
	13009	1	0	0	0	0	13	1	0	230	1	1.05	0.95;
	13010	1	54.41	18.05	0	0	13	1	0	100	1	1.05	0.95;
	13011	1	35.12	12.69	0	0	13	1	0	100	1	1.05	0.95;
	13012	1	57.07	38.25	0	0	13	1	0	100	1	1.05	0.95;
	13013	1	0	0	0	0	13	1	0	100	1	1.05	0.95;
	13014	1	52.54	19.41	0	0	13	1	0	100	1	1.05	0.95;
	13015	1	28.55	16.51	0	0	13	1	0	100	1	1.05	0.95;
	13016	1	0	0	0	0	13	1	0	100	1	1.05	0.95;
	13017	1	0	0	0	0	13	1	0	100	1	1.05	0.95;
	13018	1	54.27	8.28	0	0	13	1	0	100	1	1.05	0.95;
	13019	1	0	0	0	0	13	1	0	100	1	1.05	0.95;
	13020	1	45.67	15.2	0	0	13	1	0	100	1	1.05	0.95;
	13021	1	0	0	0	0	13	1	0	100	1	1.05	0.95;
	13022	1	26.92	12.01	0	0	13	1	0	100	1	1.05	0.95;
	13023	1	0	0	0	0	13	1	0	100	1	1.05	0.95;
	13024	1	31.11	2.56	0	0	13	1	0	100	1	1.05	0.95;
	13025	1	31.11	10.44	0	0	13	1	0	100	1	1.05	0.95;
	13026	1	0	0	0	0	13	1	0	100	1	1.05	0.95;
	13027	1	52.04	14.7	0	0	13	1	0	100	1	1.05	0.95;
	13028	1	41.34	7.16	0	0	13	1	0	100	1	1.05	0.95;
	13029	1	41.34	25.51	0	0	13	1	0	100	1	1.05	0.95;
	13030	1	0	0	0	0	13	1	0	100	1	1.05	0.95;
	13031	1	0	0	0	0	13	1	0	100	1	1.05	0.95;
	13032	1	32.57	3.68	0	0	13	1	0	100	1	1.05	0.95;
	13033	1	0	0	0	0	13	1	0	100	1	1.05	0.95;
	13034	1	32.57	2.83	0	0	13	1	0	100	1	1.05	0.95;
	13035	1	0	0	0	0	13	1	0	100	1	1.05	0.95;
	13036	1	26.48	1.31	0	0	13	1	0	100	1	1.05	0.95;
	13037	1	0	0	0	0	13	1	0	100	1	1.05	0.95;
	13038	1	31.82	10.6	0	0	13	1	0	100	1	1.05	0.95;
	13039	1	0	0	0	0	13	1	0	100	1	1.05	0.95;
	13040	1	16.83	5.7	0	0	13	1	0	100	1	1.05	0.95;
	13041	1	0	0	0	0	13	1	0	100	1	1.05	0.95;
	13042	1	40.66	20.32	0	8.5	13	1	0	100	1	1.05	0.95;
	13043	1	0	0	0	0	13	1	0	100	1	1.05	0.95;
	13044	1	40.66	26.38	0	0	13	1	0	100	1	1.05	0.95;
	13045	1	35.14	7.63	0	0	13	1	0	100	1	1.05	0.95;
	13046	1	35.14	31.87	0	0	13	1	0	100	1	1.05	0.95;
	13047	1	0	0	0	0	13	1	0	100	1	1.05	0.95;
	13048	1	0	0	0	0	13	1	0	100	1	1.05	0.95;
	13049	1	22.33	7.81	0	0	13	1	0	100	1	1.05	0.95;
	13050	1	0	0	0	0	13	1	0	100	1	1.05	0.95;
	13051	1	0	0	0	0	13	1	0	100	1	1.05	0.95;
	13052	1	36.86	10.05	0	0	13	1	0	100	1	1.05	0.95;
	13053	1	57.51	8.13	0	0	13	1	0	100	1	1.05	0.95;
	13054	1	0	0	0	0	13	1	0	100	1	1.05	0.95;
	13055	1	0	0	0	0	13	1	0	100	1	1.05	0.95;
	13056	1	57.51	12.93	0	0	13	1	0	100	1	1.05	0.95;
	13057	1	35.4	2.7	0	0	13	1	0	100	1	1.05	0.95;
	13058	1	46.79	6.81	0	0	13	1	0	100	1	1.05	0.95;
	13059	1	0	0	0	0	13	1	0	100	1	1.05	0.95;
	13060	1	46.79	6.51	0	0	13	1	0	100	1	1.05	0.95;
	13061	1	0	0	0	0	13	1	0	100	1	1.05	0.95;
	13062	1	18.2	4.17	0	0	13	1	0	100	1	1.05	0.95;
	13063	1	21.53	3.67	0	0	13	1	0	100	1	1.05	0.95;
	13064	1	24.4	2.84	0	0	13	1	0	100	1	1.05	0.95;
	13065	1	0	0	0	0	13	1	0	100	1	1.05	0.95;
	13066	1	48.27	16.15	0	0	13	1	0	100	1	1.05	0.95;
	13067	1	0	0	0	0	13	1	0	230	1	1.05	0.95;
	13068	1	0	0	0	0	13	1	0	161	1	1.05	0.95;
	13069	1	0	0	0	0	13	1	0	100	1	1.05	0.95;
	13070	1	48.27	3.72	0	0	13	1	0	161	1	1.05	0.95;
	13071	1	0	0	0	0	13	1	0	161	1	1.05	0.95;
	13072	1	33.76	10.53	0	0	13	1	0	100	1	1.05	0.95;
	13073	1	0	0	0	0	13	1	0	100	1	1.05	0.95;
	13074	1	0	0	0	0	13	1	0	100	1	1.05	0.95;
	13075	1	33.76	7.64	0	0	13	1	0	100	1	1.05	0.95;
	13076	1	0	0	0	0	13	1	0	230	1	1.05	0.95;
	13077	1	0	0	0	0	13	1	0	100	1	1.05	0.95;
	13078	1	0	0	0	0	13	1	0	13.8	1	1.05	0.95;
	13079	1	0	0	0	0	13	1	0	1	1	1.05	0.95;
	13080	1	54.91	6.77	0	0	13	1	0	230	1	1.05	0.95;
	13081	1	0	0	0	0	13	1	0	230	1	1.05	0.95;
	13082	1	29.44	2.76	0	0	13	1	0	100	1	1.05	0.95;
	13083	1	29.44	5.22	0	0	13	1	0	100	1	1.05	0.95;
	13084	1	0	0	0	0	13	1	0	100	1	1.05	0.95;
	13085	1	0	0	0	0	13	1	0	100	1	1.05	0.95;
	13086	1	27.92	8.97	0	0	13	1	0	100	1	1.05	0.95;
	13087	1	0	0	0	0	13	1	0	100	1	1.05	0.95;
	13088	1	31.24	17.62	0	0	13	1	0	100	1	1.05	0.95;
	13089	1	23.29	2.47	0	0	13	1	0	100	1	1.05	0.95;
	13090	1	11.79	1.41	0	0	13	1	0	100	1	1.05	0.95;
	13091	1	69.89	17.72	0	0	13	1	0	100	1	1.05	0.95;
	13092	1	0	0	0	0	13	1	0	230	1	1.05	0.95;
	13093	1	0	0	0	0	13	1	0	161	1	1.05	0.95;
	13094	1	0	0	0	0	13	1	0	100	1	1.05	0.95;
	13095	1	0	0	0	0	13	1	0	22	1	1.05	0.95;
	13096	1	0	0	0	0	13	1	0	1	1	1.05	0.95;
	13097	1	69.89	20.74	0	0	13	1	0	161	1	1.05	0.95;
	13098	1	0	0	0	0	13	1	0	161	1	1.05	0.95;
	13099	1	34.59	12.73	0	0	13	1	0	100	1	1.05	0.95;
	13100	1	0	0	0	0	13	1	0	100	1	1.05	0.95;
	13101	1	53.11	18.93	0	0	13	1	0	100	1	1.05	0.95;
	13102	1	0	0	0	0	13	1	0	100	1	1.05	0.95;
	13103	1	65.03	13.11	0	0	13	1	0	100	1	1.05	0.95;
	13104	1	33.7	13.02	0	0	13	1	0	100	1	1.05	0.95;
	13105	1	0	0	0	0	13	1	0	100	1	1.05	0.95;
	13106	1	33.7	2.4	0	0	13	1	0	100	1	1.05	0.95;
	13107	1	0	0	0	0	13	1	0	230	1	1.05	0.95;
	13108	1	0	0	0	0	13	1	0	100	1	1.05	0.95;
	13109	1	0	0	0	0	13	1	0	13.8	1	1.05	0.95;
	13110	1	0	0	0	0	13	1	0	1	1	1.05	0.95;
	13111	1	80.29	30.42	0	0	13	1	0	230	1	1.05	0.95;
	13112	1	0	0	0	0	13	1	0	230	1	1.05	0.95;
	13113	1	0	0	0	0	13	1	0	100	1	1.05	0.95;
	13114	1	80.29	13.44	0	0	13	1	0	230	1	1.05	0.95;
	13115	1	0	0	0	0	13	1	0	230	1	1.05	0.95;
	13116	1	26.07	3.28	0	0	13	1	0	100	1	1.05	0.95;
	13117	1	0	0	0	0	13	1	0	100	1	1.05	0.95;
	13118	1	44.06	6.87	0	0	13	1	0	100	1	1.05	0.95;
	13119	1	0	0	0	0	13	1	0	230	1	1.05	0.95;
	13120	1	51.75	14.38	0	0	13	1	0	100	1	1.05	0.95;
	13121	1	0	0	0	0	13	1	0	230	1	1.05	0.95;
	13122	1	0	0	0	0	13	1	0	100	1	1.05	0.95;
	13123	1	51.75	36.73	0	0	13	1	0	100	1	1.05	0.95;
	13124	1	0	0	0	0	13	1	0	100	1	1.05	0.95;
	13125	1	29.78	10.04	0	0	13	1	0	100	1	1.05	0.95;
	13126	1	31.14	6.11	0	0	13	1	0	100	1	1.05	0.95;
	13127	1	0	0	0	0	13	1	0	100	1	1.05	0.95;
	13128	1	0	0	0	0	13	1	0	100	1	1.05	0.95;
	13129	1	31.45	7.87	0	0	13	1	0	100	1	1.05	0.95;
	13130	1	31.45	13.58	0	0	13	1	0	100	1	1.05	0.95;
	13131	1	0	0	0	0	13	1	0	100	1	1.05	0.95;
	13132	1	33.94	8.84	0	0	13	1	0	100	1	1.05	0.95;
	13133	1	41.48	19.57	0	0	13	1	0	100	1	1.05	0.95;
	13134	1	0	0	0	0	13	1	0	100	1	1.05	0.95;
	13135	1	0	0	0	0	13	1	0	100	1	1.05	0.95;
	13136	1	47.27	12.91	0	0	13	1	0	100	1	1.05	0.95;
	13137	1	20.5	10.22	0	0	13	1	0	100	1	1.05	0.95;
	13138	1	0	0	0	0	13	1	0	100	1	1.05	0.95;
	13139	1	17.54	3.84	0	0	13	1	0	100	1	1.05	0.95;
	13140	1	0	0	0	0	13	1	0	100	1	1.05	0.95;
	13141	1	54	3.44	0	0	13	1	0	100	1	1.05	0.95;
	13142	1	43.86	10.45	0	0	13	1	0	100	1	1.05	0.95;
	13143	1	0	0	0	0	13	1	0	100	1	1.05	0.95;
	13144	1	47.25	8.03	0	0	13	1	0	100	1	1.05	0.95;
	13145	1	0	0	0	0	13	1	0	230	1	1.05	0.95;
	13146	1	0	0	0	0	13	1	0	100	1	1.05	0.95;
	13147	1	0	0	0	0	13	1	0	13.8	1	1.05	0.95;
	13148	1	0	0	0	0	13	1	0	1	1	1.05	0.95;
	13149	1	53.77	5.5	0	0	13	1	0	230	1	1.05	0.95;
	13150	1	0	0	0	0	13	1	0	230	1	1.05	0.95;
	13151	1	36.36	11.44	0	0	13	1	0	100	1	1.05	0.95;
	13152	1	22.72	4.54	0	0	13	1	0	100	1	1.05	0.95;
	13153	1	61.01	8.78	0	0	13	1	0	100	1	1.05	0.95;
	13154	1	0	0	0	0	13	1	0	100	1	1.05	0.95;
	13155	1	0	0	0	61	13	1	0	500	1	1.05	0.95;
	13156	1	0	0	0	0	13	1	0	230	1	1.05	0.95;
	13157	1	0	0	0	0	13	1	0	100	1	1.05	0.95;
	13158	1	90.48	28.4	0	0	13	1	0	500	1	1.05	0.95;
	13159	1	0	0	0	0	13	1	0	100	1	1.05	0.95;
	13160	1	28.87	17.72	0	0	13	1	0	100	1	1.05	0.95;
	13161	1	0	0	0	0	13	1	0	230	1	1.05	0.95;
	13162	1	0	0	0	0	13	1	0	161	1	1.05	0.95;
	13163	1	0	0	0	0	13	1	0	100	1	1.05	0.95;
	13164	1	76.49	18.1	0	0	13	1	0	161	1	1.05	0.95;
	13165	1	76.49	35.65	0	0	13	1	0	100	1	1.05	0.95;
	13166	1	0	0	0	0	13	1	0	100	1	1.05	0.95;
	13167	1	0	0	0	0	13	1	0	100	1	1.05	0.95;
	13168	1	34.89	16.69	0	0	13	1	0	100	1	1.05	0.95;
	13169	1	0	0	0	0	13	1	0	100	1	1.05	0.95;
	13170	1	0	0	0	0	13	1	0	100	1	1.05	0.95;
	13171	1	34.89	18.51	0	0	13	1	0	100	1	1.05	0.95;
	13172	1	15.48	8.16	0	0	13	1	0	100	1	1.05	0.95;
	13173	1	0	0	0	0	13	1	0	230	1	1.05	0.95;
	13174	1	0	0	0	0	13	1	0	161	1	1.05	0.95;
	13175	1	70.02	43.22	0	0	13	1	0	100	1	1.05	0.95;
	13176	1	0	0	0	0	13	1	0	161	1	1.05	0.95;
	13177	1	70.02	20.44	0	0	13	1	0	100	1	1.05	0.95;
	13178	1	37.41	6.79	0	0	13	1	0	100	1	1.05	0.95;